(PID.TID 0000.0001) 
(PID.TID 0000.0001) // ======================================================
(PID.TID 0000.0001) //                      MITgcm UV
(PID.TID 0000.0001) //                      =========
(PID.TID 0000.0001) // ======================================================
(PID.TID 0000.0001) // execution environment starting up...
(PID.TID 0000.0001) // Run starting Wed Apr  1 14:19:48 1998
(PID.TID 0000.0001) // on melville.lcs.mit.edu
(PID.TID 0000.0001) // account cnh
(PID.TID 0000.0001) // MITgcm UV Release: $Name$
(PID.TID 0000.0001) 
(PID.TID 0000.0001) // =======================================================
(PID.TID 0000.0001) // Execution Environment parameter file "eedata"
(PID.TID 0000.0001) // =======================================================
(PID.TID 0000.0001) ># Example "eedata" file
(PID.TID 0000.0001) ># Lines beginning "#" are comments
(PID.TID 0000.0001) ># nTx - No. threads per process in X
(PID.TID 0000.0001) ># nTy - No. threads per process in Y
(PID.TID 0000.0001) > &EEPARMS
(PID.TID 0000.0001) > nTx=1,nTy=1
(PID.TID 0000.0001) > &
(PID.TID 0000.0001) ># Note: Some systems use & as the
(PID.TID 0000.0001) ># namelist terminator. Other systems
(PID.TID 0000.0001) ># use a / character (as shown here).
(PID.TID 0000.0001) 
(PID.TID 0000.0001) // =======================================================
(PID.TID 0000.0001) // Computational Grid Specification ( see files "SIZE.h" )
(PID.TID 0000.0001) //                                  ( and "eedata"       )
(PID.TID 0000.0001) // =======================================================
(PID.TID 0000.0001)      nPx =    1 ; /* No. processes in X */
(PID.TID 0000.0001)      nPy =    1 ; /* No. processes in Y */
(PID.TID 0000.0001)      nSx =    1 ; /* No. tiles in X per process */
(PID.TID 0000.0001)      nSy =    1 ; /* No. tiles in Y per process */
(PID.TID 0000.0001)      sNx =   20 ; /* Tile size in X */
(PID.TID 0000.0001)      sNy =   16 ; /* Tile size in Y */
(PID.TID 0000.0001)      OLx =    4 ; /* Tile overlap distance in X */
(PID.TID 0000.0001)      OLy =    4 ; /* Tile overlap distance in Y */
(PID.TID 0000.0001)      nTx =    1 ; /* No. threads in X per process */
(PID.TID 0000.0001)      nTy =    1 ; /* No. threads in Y per process */
(PID.TID 0000.0001)       Nr =   23 ; /* No. levels in the vertical   */
(PID.TID 0000.0001)       nX =   20 ; /* Total domain size in X ( = nPx*nSx*sNx ) */
(PID.TID 0000.0001)       nY =   16 ; /* Total domain size in Y ( = nPy*nSy*sNy ) */
(PID.TID 0000.0001)   nTiles =    1 ; /* Total no. tiles per process ( = nSx*nSy ) */
(PID.TID 0000.0001)   nProcs =    1 ; /* Total no. processes ( = nPx*nPy ) */
(PID.TID 0000.0001) nThreads =    1 ; /* Total no. threads per process ( = nTx*nTy ) */
(PID.TID 0000.0001) usingMPI =    F ; /* Flag used to control whether MPI is in use */
(PID.TID 0000.0001)                   /*  note: To execute a program with MPI calls */
(PID.TID 0000.0001)                   /*  it must be launched appropriately e.g     */
(PID.TID 0000.0001)                   /*  "mpirun -np 64 ......"                    */
(PID.TID 0000.0001) 
(PID.TID 0000.0001) // ======================================================
(PID.TID 0000.0001) // Mapping of tiles to threads
(PID.TID 0000.0001) // ======================================================
(PID.TID 0000.0001) // -o- Thread   1, tiles (   1:   1,   1:   1)
(PID.TID 0000.0001) 
(PID.TID 0000.0001) // ======================================================
(PID.TID 0000.0001) // Tile <-> Tile connectvity table
(PID.TID 0000.0001) // ======================================================
(PID.TID 0000.0001) // Tile number: 000001 (process no. = 000001)
(PID.TID 0000.0001) //        WEST: Tile = 000001, Process = 000001, Comm = put
(PID.TID 0000.0001) //                bi = 000001, bj = 000001
(PID.TID 0000.0001) //        EAST: Tile = 000001, Process = 000001, Comm = put
(PID.TID 0000.0001) //                bi = 000001, bj = 000001
(PID.TID 0000.0001) //       SOUTH: Tile = 000001, Process = 000001, Comm = put
(PID.TID 0000.0001) //                bi = 000001, bj = 000001
(PID.TID 0000.0001) //       NORTH: Tile = 000001, Process = 000001, Comm = put
(PID.TID 0000.0001) //                bi = 000001, bj = 000001
(PID.TID 0000.0001) 
(PID.TID 0000.0001) // =======================================================
(PID.TID 0000.0001) // Model parameter file "data"
(PID.TID 0000.0001) // =======================================================
(PID.TID 0000.0001) ># ====================
(PID.TID 0000.0001) ># | Model parameters |
(PID.TID 0000.0001) ># ====================
(PID.TID 0000.0001) >#
(PID.TID 0000.0001) ># Continuous equation parameters
(PID.TID 0000.0001) >#
(PID.TID 0000.0001) >#   tRef            - Reference vertical potential temperature          (deg C)
(PID.TID 0000.0001) >#   sRef            - Reference vertical salinity                         (PSU)
(PID.TID 0000.0001) >#   viscAh          - Horizontal eddy viscosity coefficient             (m^2/s)
(PID.TID 0000.0001) >#   viscAz          - Vertical eddy viscosity coefficient               (m^2/s)
(PID.TID 0000.0001) >#   diffKhT         - Horizontal temperature diffusivity                (m^2/s)
(PID.TID 0000.0001) >#   diffKzT         - Vertical temperature diffusivity                  (m^2/s)
(PID.TID 0000.0001) >#   diffKhS         - Horizontal salt diffusivity                       (m^2/s)
(PID.TID 0000.0001) >#   diffKzS         - Vertical salt diffusivity                         (m^2/s)
(PID.TID 0000.0001) >#   f0              - Reference coriolis parameter,
(PID.TID 0000.0001) >#                     south edge of f on beta plane                       (1/s)
(PID.TID 0000.0001) >#   beta            - df/dy                                         (s^-1.m^-1)
(PID.TID 0000.0001) >#   tAlpha          - Linear EOS thermal expansion coefficient           (1/oC)
(PID.TID 0000.0001) >#   sBeta           - Linear EOS haline contraction coefficient         (1/ppt)
(PID.TID 0000.0001) >#   gravity         - Acceleration due to gravity                       (m/s^2)
(PID.TID 0000.0001) >#   gBaro           - Accel. due to gravity used in barotropic equation (m/s^2)
(PID.TID 0000.0001) >#   rigidLid        - Set to true to use rigid lid
(PID.TID 0000.0001) >#   implicitFreeSurface - Set to true to use implicit free surface
(PID.TID 0000.0001) >#   eosType         - Flag for linear or polynomial equation of state
(PID.TID 0000.0001) >#   GMkbackground   - background value of GM/Redi coefficient
(PID.TID 0000.0001) >#   momAdvection    - On/Off flag for momentum self transport
(PID.TID 0000.0001) >#   momViscosity    - On/Off flag for momentum mixing
(PID.TID 0000.0001) >#
(PID.TID 0000.0001) > &PARM01
(PID.TID 0000.0001) > viscAz             = 1.E-3,
(PID.TID 0000.0001) > diffKzT            = 1.E-5,
(PID.TID 0000.0001) > diffKzS            = 1.E-5,
(PID.TID 0000.0001) > viscAh             = 5.0E4,
(PID.TID 0000.0001) > viscA4             = 5.e12,
(PID.TID 0000.0001) > diffKhT            = 1.0E3,
(PID.TID 0000.0001) > diffKhS            = 1.0E3,
(PID.TID 0000.0001) > f0                 = 1.e-4,
(PID.TID 0000.0001) > beta               = 1.E-11,
(PID.TID 0000.0001) > tAlpha             = 2.E-4,
(PID.TID 0000.0001) > sBeta              = 7.4E-4,
(PID.TID 0000.0001) > gravity            = 9.81,
(PID.TID 0000.0001) > gBaro              = 9.81,
(PID.TID 0000.0001) > rigidLid           = .FALSE.,
(PID.TID 0000.0001) > implicitFreeSurface= .TRUE.,
(PID.TID 0000.0001) > implicitDiffusion  = .TRUE.,
(PID.TID 0000.0001) > eosType            = 'POLY3',
(PID.TID 0000.0001) > momAdvection       = .TRUE.,
(PID.TID 0000.0001) > momViscosity       = .TRUE.,
(PID.TID 0000.0001) > implicitDiffusion  = .TRUE.,
(PID.TID 0000.0001) > implicitViscosity  = .TRUE.,
(PID.TID 0000.0001) > no_slip_bottom     = .TRUE.,
(PID.TID 0000.0001) > no_slip_sides      = .FALSE.,
(PID.TID 0000.0001) > readBinaryPrec     = 32,
(PID.TID 0000.0001) > &
(PID.TID 0000.0001) >
(PID.TID 0000.0001) ># Elliptic solver parameters
(PID.TID 0000.0001) >#
(PID.TID 0000.0001) >#   cg2dMaxIters       - Maximum number of 2d solver iterations
(PID.TID 0000.0001) >#   cg2dTargetResidual - Solver target residual
(PID.TID 0000.0001) >#
(PID.TID 0000.0001) > &PARM02
(PID.TID 0000.0001) > cg2dMaxIters       = 1000,
(PID.TID 0000.0001) > cg2dTargetResidual = 1.E-13,
(PID.TID 0000.0001) > &
(PID.TID 0000.0001) >
(PID.TID 0000.0001) ># Time stepping parameters
(PID.TID 0000.0001) >#
(PID.TID 0000.0001) >#   startTime         - Integration starting time                (s)
(PID.TID 0000.0001) >#   endTime           - Integration ending time                  (s)
(PID.TID 0000.0001) >#   tauCD             - CD scheme coupling timescale             (s)
(PID.TID 0000.0001) >#   deltaTMom         - Timestep for momemtum equations          (s)
(PID.TID 0000.0001) >#   deltaTtracer      - Tracer timestep                          (s)
(PID.TID 0000.0001) >#   deltaTClock       - Timestep used as model "clock"           (s)
(PID.TID 0000.0001) >#   abEps             - Adams-Bashforth stabilising factor
(PID.TID 0000.0001) >#   pChkPtFreq        - Frequency of permanent check pointing    (s)
(PID.TID 0000.0001) >#   chkPtFreq         - Frequency of rolling check pointing      (s)
(PID.TID 0000.0001) >#   dumpFreq          - Frequency at which model state is stored (s)
(PID.TID 0000.0001) >#   tauThetaClimRelax - Relaxation to climatology time scale     (s)
(PID.TID 0000.0001) >#   tauSaltClimRelax  - Relaxation to climatology time scale     (s)
(PID.TID 0000.0001) >#
(PID.TID 0000.0001) > &PARM03
(PID.TID 0000.0001) > startTime  = 0.0,
(PID.TID 0000.0001) > endTime    = 72000.0,
(PID.TID 0000.0001) > deltaTmom  = 3600.0,
(PID.TID 0000.0001) > TauCD      = 172800.
(PID.TID 0000.0001) > cAdjFreq   = 0.,
(PID.TID 0000.0001) > abEps      = 0.1,
(PID.TID 0000.0001) > pChkptFreq = 0.0,
(PID.TID 0000.0001) > chkptFreq  = 0.0,
(PID.TID 0000.0001) > dumpFreq   = 864000.0,
(PID.TID 0000.0001) > tauSaltClimRelax = 2592000.0,
(PID.TID 0000.0001) > tauThetaClimRelax = 2592000.0,
(PID.TID 0000.0001) > periodicExternalForcing = .TRUE.,
(PID.TID 0000.0001) > externForcingPeriod = 43200.0,
(PID.TID 0000.0001) > externForcingCycle = 2764800.0,
(PID.TID 0000.0001) > monitorFreq=1.,
(PID.TID 0000.0001) > &
(PID.TID 0000.0001) >
(PID.TID 0000.0001) ># Gridding parameters
(PID.TID 0000.0001) >#
(PID.TID 0000.0001) >#   usingSphericalPolarGrid - On/Off flag for spherical polar coordinates
(PID.TID 0000.0001) >#   usingCartesianGrid      - On/Off flag for selecting cartesian coordinates
(PID.TID 0000.0001) >#   delX                    - Zonal grid spacing         (degrees)
(PID.TID 0000.0001) >#   delY                    - Meridional grid spacing    (degrees)
(PID.TID 0000.0001) >#   delZ                    - Vertical grid spacing      (m)
(PID.TID 0000.0001) >#   phiMin                  - Southern boundary latitude (degrees)
(PID.TID 0000.0001) >#
(PID.TID 0000.0001) > &PARM04
(PID.TID 0000.0001) > usingCartesianGrid      = .FALSE.,
(PID.TID 0000.0001) > usingSphericalPolarGrid = .TRUE.,
(PID.TID 0000.0001) > delX   = 20*2.,
(PID.TID 0000.0001) > delY   = 16*2.,
(PID.TID 0000.0001) > delZ= 10., 10., 15., 20., 20., 25., 35., 50., 75.,
(PID.TID 0000.0001) >       100., 150., 200., 275., 350., 415., 450.,
(PID.TID 0000.0001) >       500., 500., 500., 500., 500., 500., 500.
(PID.TID 0000.0001) > phiMin = 10.,
(PID.TID 0000.0001) > thetaMin= -42.
(PID.TID 0000.0001) > &
(PID.TID 0000.0001) >
(PID.TID 0000.0001) ># Input datasets
(PID.TID 0000.0001) >#
(PID.TID 0000.0001) >#   bathyFile       - File containing bathymetry
(PID.TID 0000.0001) >#   hydrogThetaFile - File containing initial potential temperature data
(PID.TID 0000.0001) >#   hydrogSaltFile  - File containing initial salinity data
(PID.TID 0000.0001) >#   zonalWindFile   - File containing zonal wind data
(PID.TID 0000.0001) >#   meridWindFile   - File containing meridional wind data
(PID.TID 0000.0001) >#   thetaClimFile   - File containing theta climatology used for relaxation
(PID.TID 0000.0001) >#   saltClimFile    - File containing salt climatology used for relaxation
(PID.TID 0000.0001) >#
(PID.TID 0000.0001) > &PARM05
(PID.TID 0000.0001) > bathyFile       = 'kf_topog',
(PID.TID 0000.0001) > hydrogThetaFile = 'kf_climtheta',
(PID.TID 0000.0001) > hydrogSaltFile  = 'kf_climsalt',
(PID.TID 0000.0001) > zonalWindFile   = 'kf_fu',
(PID.TID 0000.0001) > meridWindFile   = 'kf_fv',
(PID.TID 0000.0001) > thetaClimFile   = 'kf_sst',
(PID.TID 0000.0001) > saltClimFile    = 'kf_sss',
(PID.TID 0000.0001) > surfQFile       = 'kf_qnet',
(PID.TID 0000.0001) > EmPmRFile       = 'kf_empmr',
(PID.TID 0000.0001) > surfQswFile     = 'kf_sw',
(PID.TID 0000.0001) > &
(PID.TID 0000.0001) 
(PID.TID 0000.0001) %MON XC_max                       =  -3.0000000000000E+00
(PID.TID 0000.0001) %MON XC_min                       =  -4.1000000000000E+01
(PID.TID 0000.0001) %MON XC_mean                      =  -2.2000000000000E+01
(PID.TID 0000.0001) %MON XC_sd                        =   1.1532562594671E+01
(PID.TID 0000.0001) %MON XG_max                       =  -4.0000000000000E+00
(PID.TID 0000.0001) %MON XG_min                       =  -4.2000000000000E+01
(PID.TID 0000.0001) %MON XG_mean                      =  -2.3000000000000E+01
(PID.TID 0000.0001) %MON XG_sd                        =   1.1532562594671E+01
(PID.TID 0000.0001) %MON DXC_max                      =   2.1826966005878E+05
(PID.TID 0000.0001) %MON DXC_min                      =   1.6781340848749E+05
(PID.TID 0000.0001) %MON DXC_mean                     =   1.9727395728441E+05
(PID.TID 0000.0001) %MON DXC_sd                       =   1.5731168072696E+04
(PID.TID 0000.0001) %MON DXF_max                      =   2.1826966005878E+05
(PID.TID 0000.0001) %MON DXF_min                      =   1.6781340848749E+05
(PID.TID 0000.0001) %MON DXF_mean                     =   1.9727395728441E+05
(PID.TID 0000.0001) %MON DXF_sd                       =   1.5731168072696E+04
(PID.TID 0000.0001) %MON DXG_max                      =   2.1897687543479E+05
(PID.TID 0000.0001) %MON DXG_min                      =   1.7033377132268E+05
(PID.TID 0000.0001) %MON DXG_mean                     =   1.9892312861058E+05
(PID.TID 0000.0001) %MON DXG_sd                       =   1.5180938630473E+04
(PID.TID 0000.0001) %MON DXV_max                      =   2.1897687543479E+05
(PID.TID 0000.0001) %MON DXV_min                      =   1.7033377132268E+05
(PID.TID 0000.0001) %MON DXV_mean                     =   1.9892312861058E+05
(PID.TID 0000.0001) %MON DXV_sd                       =   1.5180938630473E+04
(PID.TID 0000.0001) %MON YC_max                       =   4.1000000000000E+01
(PID.TID 0000.0001) %MON YC_min                       =   1.1000000000000E+01
(PID.TID 0000.0001) %MON YC_mean                      =   2.6000000000000E+01
(PID.TID 0000.0001) %MON YC_sd                        =   9.2195444572929E+00
(PID.TID 0000.0001) %MON YG_max                       =   4.0000000000000E+01
(PID.TID 0000.0001) %MON YG_min                       =   1.0000000000000E+01
(PID.TID 0000.0001) %MON YG_mean                      =   2.5000000000000E+01
(PID.TID 0000.0001) %MON YG_sd                        =   9.2195444572929E+00
(PID.TID 0000.0001) %MON DYC_max                      =   2.2235494670408E+05
(PID.TID 0000.0001) %MON DYC_min                      =   2.2235494670408E+05
(PID.TID 0000.0001) %MON DYC_mean                     =   2.2235494670408E+05
(PID.TID 0000.0001) %MON DYC_sd                       =   1.1641532182693E-09
(PID.TID 0000.0001) %MON DYF_max                      =   2.2235494670408E+05
(PID.TID 0000.0001) %MON DYF_min                      =   2.2235494670408E+05
(PID.TID 0000.0001) %MON DYF_mean                     =   2.2235494670408E+05
(PID.TID 0000.0001) %MON DYF_sd                       =   1.1641532182693E-09
(PID.TID 0000.0001) %MON DYG_max                      =   2.2235494670408E+05
(PID.TID 0000.0001) %MON DYG_min                      =   2.2235494670408E+05
(PID.TID 0000.0001) %MON DYG_mean                     =   2.2235494670408E+05
(PID.TID 0000.0001) %MON DYG_sd                       =   1.1641532182693E-09
(PID.TID 0000.0001) %MON DYU_max                      =   2.2235494670408E+05
(PID.TID 0000.0001) %MON DYU_min                      =   2.2235494670408E+05
(PID.TID 0000.0001) %MON DYU_mean                     =   2.2235494670408E+05
(PID.TID 0000.0001) %MON DYU_sd                       =   1.1641532182693E-09
(PID.TID 0000.0001) %MON RA_max                       =   4.8530874650285E+10
(PID.TID 0000.0001) %MON RA_min                       =   3.7312247106402E+10
(PID.TID 0000.0001) %MON RA_mean                      =   4.3862613292919E+10
(PID.TID 0000.0001) %MON RA_sd                        =   3.4977254540690E+09
(PID.TID 0000.0001) %MON RAW_max                      =   4.8530874650285E+10
(PID.TID 0000.0001) %MON RAW_min                      =   3.7312247106402E+10
(PID.TID 0000.0001) %MON RAW_mean                     =   4.3862613292919E+10
(PID.TID 0000.0001) %MON RAW_sd                       =   3.4977254540690E+09
(PID.TID 0000.0001) %MON RAS_max                      =   4.8688119503989E+10
(PID.TID 0000.0001) %MON RAS_min                      =   3.7872633798691E+10
(PID.TID 0000.0001) %MON RAS_mean                     =   4.4229296078267E+10
(PID.TID 0000.0001) %MON RAS_sd                       =   3.3753854271397E+09
(PID.TID 0000.0001) %MON RAZ_max                      =   4.8688119503989E+10
(PID.TID 0000.0001) %MON RAZ_min                      =   3.7872633798691E+10
(PID.TID 0000.0001) %MON RAZ_mean                     =   4.4229296078267E+10
(PID.TID 0000.0001) %MON RAZ_sd                       =   3.3753854271397E+09
(PID.TID 0000.0001)  MDSREADFIELD: opening global file: kf_topog
(PID.TID 0000.0001) // =======================================================
(PID.TID 0000.0001) // Field Model R_low (ini_masks_etc) at iteration          1
(PID.TID 0000.0001) // CMIN =         -5.200000000000000E+03
(PID.TID 0000.0001) // CMAX =         -3.600000000000000E+02
(PID.TID 0000.0001) // CINT =          1.792592592592593E+02
(PID.TID 0000.0001) // SYMBOLS (CMIN->CMAX): -abcdefghijklmnopqrstuvwxyz+
(PID.TID 0000.0001) //                  0.0: .
(PID.TID 0000.0001) // RANGE I (Lo:Hi:Step):(  -3:  24:   1)
(PID.TID 0000.0001) // RANGE J (Lo:Hi:Step):(  20:  -3:  -1)
(PID.TID 0000.0001) // RANGE K (Lo:Hi:Step):(   1:   1:   1)
(PID.TID 0000.0001) // =======================================================
(PID.TID 0000.0001) K =   1
(PID.TID 0000.0001) //                I=6       I=16
(PID.TID 0000.0001) // |--J--|***012345|789012345|78901234
(PID.TID 0000.0001) //     20 .....cc-----cfkhkz.......cc-
(PID.TID 0000.0001) //     19 .....c-------cccfy.......c--
(PID.TID 0000.0001) //     18 .....hcc------ccfx.......hcc
(PID.TID 0000.0001) //     17 ............................
(PID.TID 0000.0001) //     16 ............................
(PID.TID 0000.0001) //     15 hv+..fhknsqknnff-ckhhv+..fhk
(PID.TID 0000.0001) //     14 fhx..hknnnnkhcc-chhhfhx..hkn
(PID.TID 0000.0001) //     13 fz...knnkhknf--chkfffz...knn
(PID.TID 0000.0001) //     12 q....nkhfffhc--cffhnq....nkh
(PID.TID 0000.0001) //     11 +....khfccccc-ccfkkv+....khf
(PID.TID 0000.0001) //     10 .....hcc---cc-cfhks......hcc
(PID.TID 0000.0001) //      9 .....fc-------cfkq.......fc-
(PID.TID 0000.0001) //      8 .....c-------ccfkx.......c--
(PID.TID 0000.0001) //      7 .....c---cfcccfhk+.......c--
(PID.TID 0000.0001) //      6 .....c---cccffhknv.......c--
(PID.TID 0000.0001) //      5 .....c--ccccfkkkkq.......c--
(PID.TID 0000.0001) //      4 .....cc-----cfkhkz.......cc-
(PID.TID 0000.0001) //      3 .....c-------cccfy.......c--
(PID.TID 0000.0001) //      2 .....hcc------ccfx.......hcc
(PID.TID 0000.0001) //      1 ............................
(PID.TID 0000.0001) //      0 ............................
(PID.TID 0000.0001) //     -1 hv+..fhknsqknnff-ckhhv+..fhk
(PID.TID 0000.0001) //     -2 fhx..hknnnnkhcc-chhhfhx..hkn
(PID.TID 0000.0001) //     -3 fz...knnkhknf--chkfffz...knn
(PID.TID 0000.0001) // =======================================================
(PID.TID 0000.0001) // END OF FIELD                                          =
(PID.TID 0000.0001) // =======================================================
(PID.TID 0000.0001) 
(PID.TID 0000.0001) // =======================================================
(PID.TID 0000.0001) // Field Model Ro_surf (ini_masks_etc) at iteration          1
(PID.TID 0000.0001) // CMIN =          1.000000000000000E+32
(PID.TID 0000.0001) // CMAX =         -1.000000000000000E+32
(PID.TID 0000.0001) // CINT =          0.000000000000000E+00
(PID.TID 0000.0001) // SYMBOLS (CMIN->CMAX): -abcdefghijklmnopqrstuvwxyz+
(PID.TID 0000.0001) //                  0.0: .
(PID.TID 0000.0001) // RANGE I (Lo:Hi:Step):(  -3:  24:   1)
(PID.TID 0000.0001) // RANGE J (Lo:Hi:Step):(  20:  -3:  -1)
(PID.TID 0000.0001) // RANGE K (Lo:Hi:Step):(   1:   1:   1)
(PID.TID 0000.0001) // =======================================================
(PID.TID 0000.0001) K =   1
(PID.TID 0000.0001) //                I=6       I=16
(PID.TID 0000.0001) // |--J--|***012345|789012345|78901234
(PID.TID 0000.0001) //     20 ............................
(PID.TID 0000.0001) //     19 ............................
(PID.TID 0000.0001) //     18 ............................
(PID.TID 0000.0001) //     17 ............................
(PID.TID 0000.0001) //     16 ............................
(PID.TID 0000.0001) //     15 ............................
(PID.TID 0000.0001) //     14 ............................
(PID.TID 0000.0001) //     13 ............................
(PID.TID 0000.0001) //     12 ............................
(PID.TID 0000.0001) //     11 ............................
(PID.TID 0000.0001) //     10 ............................
(PID.TID 0000.0001) //      9 ............................
(PID.TID 0000.0001) //      8 ............................
(PID.TID 0000.0001) //      7 ............................
(PID.TID 0000.0001) //      6 ............................
(PID.TID 0000.0001) //      5 ............................
(PID.TID 0000.0001) //      4 ............................
(PID.TID 0000.0001) //      3 ............................
(PID.TID 0000.0001) //      2 ............................
(PID.TID 0000.0001) //      1 ............................
(PID.TID 0000.0001) //      0 ............................
(PID.TID 0000.0001) //     -1 ............................
(PID.TID 0000.0001) //     -2 ............................
(PID.TID 0000.0001) //     -3 ............................
(PID.TID 0000.0001) // =======================================================
(PID.TID 0000.0001) // END OF FIELD                                          =
(PID.TID 0000.0001) // =======================================================
(PID.TID 0000.0001) 
(PID.TID 0000.0001) // =======================================================
(PID.TID 0000.0001) // Field hFacC at iteration          1
(PID.TID 0000.0001) // CMIN =          1.000000000000000E+00
(PID.TID 0000.0001) // CMAX =          1.000000000000000E+00
(PID.TID 0000.0001) // CINT =          0.000000000000000E+00
(PID.TID 0000.0001) // SYMBOLS (CMIN->CMAX): -abcdefghijklmnopqrstuvwxyz+
(PID.TID 0000.0001) //                  0.0: .
(PID.TID 0000.0001) // RANGE I (Lo:Hi:Step):(  -3:  24:   1)
(PID.TID 0000.0001) // RANGE J (Lo:Hi:Step):(  20:  -3:  -1)
(PID.TID 0000.0001) // RANGE K (Lo:Hi:Step):(   1:   1:   1)
(PID.TID 0000.0001) // =======================================================
(PID.TID 0000.0001) K =   1
(PID.TID 0000.0001) //                I=6       I=16
(PID.TID 0000.0001) // |--J--|***012345|789012345|78901234
(PID.TID 0000.0001) //     20 .....-------------.......---
(PID.TID 0000.0001) //     19 .....-------------.......---
(PID.TID 0000.0001) //     18 .....-------------.......---
(PID.TID 0000.0001) //     17 ............................
(PID.TID 0000.0001) //     16 ............................
(PID.TID 0000.0001) //     15 ---..------------------..---
(PID.TID 0000.0001) //     14 ---..------------------..---
(PID.TID 0000.0001) //     13 --...-----------------...---
(PID.TID 0000.0001) //     12 -....----------------....---
(PID.TID 0000.0001) //     11 -....----------------....---
(PID.TID 0000.0001) //     10 .....--------------......---
(PID.TID 0000.0001) //      9 .....-------------.......---
(PID.TID 0000.0001) //      8 .....-------------.......---
(PID.TID 0000.0001) //      7 .....-------------.......---
(PID.TID 0000.0001) //      6 .....-------------.......---
(PID.TID 0000.0001) //      5 .....-------------.......---
(PID.TID 0000.0001) //      4 .....-------------.......---
(PID.TID 0000.0001) //      3 .....-------------.......---
(PID.TID 0000.0001) //      2 .....-------------.......---
(PID.TID 0000.0001) //      1 ............................
(PID.TID 0000.0001) //      0 ............................
(PID.TID 0000.0001) //     -1 ---..------------------..---
(PID.TID 0000.0001) //     -2 ---..------------------..---
(PID.TID 0000.0001) //     -3 --...-----------------...---
(PID.TID 0000.0001) // =======================================================
(PID.TID 0000.0001) // END OF FIELD                                          =
(PID.TID 0000.0001) // =======================================================
(PID.TID 0000.0001) 
(PID.TID 0000.0001) // =======================================================
(PID.TID 0000.0001) // Field hFacW at iteration          1
(PID.TID 0000.0001) // CMIN =          1.000000000000000E+00
(PID.TID 0000.0001) // CMAX =          1.000000000000000E+00
(PID.TID 0000.0001) // CINT =          0.000000000000000E+00
(PID.TID 0000.0001) // SYMBOLS (CMIN->CMAX): -abcdefghijklmnopqrstuvwxyz+
(PID.TID 0000.0001) //                  0.0: .
(PID.TID 0000.0001) // RANGE I (Lo:Hi:Step):(  -3:  24:   1)
(PID.TID 0000.0001) // RANGE J (Lo:Hi:Step):(  20:  -3:  -1)
(PID.TID 0000.0001) // RANGE K (Lo:Hi:Step):(   1:   1:   1)
(PID.TID 0000.0001) // =======================================================
(PID.TID 0000.0001) K =   1
(PID.TID 0000.0001) //                I=6       I=16
(PID.TID 0000.0001) // |--J--|***012345|789012345|78901234
(PID.TID 0000.0001) //     20 ......------------........--
(PID.TID 0000.0001) //     19 ......------------........--
(PID.TID 0000.0001) //     18 ......------------........--
(PID.TID 0000.0001) //     17 ............................
(PID.TID 0000.0001) //     16 ............................
(PID.TID 0000.0001) //     15 ---...-----------------...--
(PID.TID 0000.0001) //     14 ---...-----------------...--
(PID.TID 0000.0001) //     13 --....----------------....--
(PID.TID 0000.0001) //     12 -.....---------------.....--
(PID.TID 0000.0001) //     11 -.....---------------.....--
(PID.TID 0000.0001) //     10 ......-------------.......--
(PID.TID 0000.0001) //      9 ......------------........--
(PID.TID 0000.0001) //      8 ......------------........--
(PID.TID 0000.0001) //      7 ......------------........--
(PID.TID 0000.0001) //      6 ......------------........--
(PID.TID 0000.0001) //      5 ......------------........--
(PID.TID 0000.0001) //      4 ......------------........--
(PID.TID 0000.0001) //      3 ......------------........--
(PID.TID 0000.0001) //      2 ......------------........--
(PID.TID 0000.0001) //      1 ............................
(PID.TID 0000.0001) //      0 ............................
(PID.TID 0000.0001) //     -1 ---...-----------------...--
(PID.TID 0000.0001) //     -2 ---...-----------------...--
(PID.TID 0000.0001) //     -3 --....----------------....--
(PID.TID 0000.0001) // =======================================================
(PID.TID 0000.0001) // END OF FIELD                                          =
(PID.TID 0000.0001) // =======================================================
(PID.TID 0000.0001) 
(PID.TID 0000.0001) // =======================================================
(PID.TID 0000.0001) // Field hFacS at iteration          1
(PID.TID 0000.0001) // CMIN =          1.000000000000000E+00
(PID.TID 0000.0001) // CMAX =          1.000000000000000E+00
(PID.TID 0000.0001) // CINT =          0.000000000000000E+00
(PID.TID 0000.0001) // SYMBOLS (CMIN->CMAX): -abcdefghijklmnopqrstuvwxyz+
(PID.TID 0000.0001) //                  0.0: .
(PID.TID 0000.0001) // RANGE I (Lo:Hi:Step):(  -3:  24:   1)
(PID.TID 0000.0001) // RANGE J (Lo:Hi:Step):(  20:  -3:  -1)
(PID.TID 0000.0001) // RANGE K (Lo:Hi:Step):(   1:   1:   1)
(PID.TID 0000.0001) // =======================================================
(PID.TID 0000.0001) K =   1
(PID.TID 0000.0001) //                I=6       I=16
(PID.TID 0000.0001) // |--J--|***012345|789012345|78901234
(PID.TID 0000.0001) //     20 .....-------------.......---
(PID.TID 0000.0001) //     19 .....-------------.......---
(PID.TID 0000.0001) //     18 ............................
(PID.TID 0000.0001) //     17 ............................
(PID.TID 0000.0001) //     16 ............................
(PID.TID 0000.0001) //     15 ---..------------------..---
(PID.TID 0000.0001) //     14 --...-----------------...---
(PID.TID 0000.0001) //     13 -....----------------....---
(PID.TID 0000.0001) //     12 -....----------------....---
(PID.TID 0000.0001) //     11 .....--------------......---
(PID.TID 0000.0001) //     10 .....-------------.......---
(PID.TID 0000.0001) //      9 .....-------------.......---
(PID.TID 0000.0001) //      8 .....-------------.......---
(PID.TID 0000.0001) //      7 .....-------------.......---
(PID.TID 0000.0001) //      6 .....-------------.......---
(PID.TID 0000.0001) //      5 .....-------------.......---
(PID.TID 0000.0001) //      4 .....-------------.......---
(PID.TID 0000.0001) //      3 .....-------------.......---
(PID.TID 0000.0001) //      2 ............................
(PID.TID 0000.0001) //      1 ............................
(PID.TID 0000.0001) //      0 ............................
(PID.TID 0000.0001) //     -1 ---..------------------..---
(PID.TID 0000.0001) //     -2 --...-----------------...---
(PID.TID 0000.0001) //     -3 -....----------------....---
(PID.TID 0000.0001) // =======================================================
(PID.TID 0000.0001) // END OF FIELD                                          =
(PID.TID 0000.0001) // =======================================================
(PID.TID 0000.0001) 
(PID.TID 0000.0001) %MON fCori_max                    =   9.5419917861011E-05
(PID.TID 0000.0001) %MON fCori_min                    =   2.7752043431195E-05
(PID.TID 0000.0001) %MON fCori_mean                   =   6.2936249243167E-05
(PID.TID 0000.0001) %MON fCori_sd                     =   2.0885809702547E-05
(PID.TID 0000.0001) %MON fCoriG_max                   =   9.3489668167119E-05
(PID.TID 0000.0001) %MON fCoriG_min                   =   2.5256103669800E-05
(PID.TID 0000.0001) %MON fCoriG_mean                  =   6.0674632558389E-05
(PID.TID 0000.0001) %MON fCoriG_sd                    =   2.1059305790472E-05
(PID.TID 0000.0001)  PACKAGES_BOOT: opening data.pkg
(PID.TID 0000.0001)  OPEN_COPY_DATA_FILE: opening file data.pkg
(PID.TID 0000.0001) // =======================================================
(PID.TID 0000.0001) // Parameter file "data.pkg"
(PID.TID 0000.0001) // =======================================================
(PID.TID 0000.0001) ># Packages
(PID.TID 0000.0001) > &PACKAGES
(PID.TID 0000.0001) >  useGMRedi=.FALSE.,
(PID.TID 0000.0001) >  useKPP=.TRUE.,
(PID.TID 0000.0001) >  useECCO=.FALSE.,
(PID.TID 0000.0001) > &
(PID.TID 0000.0001) 
(PID.TID 0000.0001)  PACKAGES_BOOT: finished reading data.pkg
(PID.TID 0000.0001)  KPP_INIT: opening data.kpp
(PID.TID 0000.0001)  OPEN_COPY_DATA_FILE: opening file data.kpp
(PID.TID 0000.0001) // =======================================================
(PID.TID 0000.0001) // Parameter file "data.kpp"
(PID.TID 0000.0001) // =======================================================
(PID.TID 0000.0001) ># KPP parameters
(PID.TID 0000.0001) > &KPP_PARM01
(PID.TID 0000.0001) > KPPmixingMaps   = .FALSE.,
(PID.TID 0000.0001) > KPPwriteState   = .TRUE.,
(PID.TID 0000.0001) > kpp_dumpFreq    = 864000.0
(PID.TID 0000.0001) > &
(PID.TID 0000.0001) 
(PID.TID 0000.0001)  KPP_INIT: finished reading data.kpp
(PID.TID 0000.0001) KPP_CHECK: #define ALLOW_KPP
(PID.TID 0000.0001) // CG2D normalisation factor =          0.1575292392863445400000000E-03
(PID.TID 0000.0001) 
(PID.TID 0000.0001) // =======================================================
(PID.TID 0000.0001) // Model configuration
(PID.TID 0000.0001) // =======================================================
(PID.TID 0000.0001) //
(PID.TID 0000.0001) // "Physical" paramters ( PARM01 in namelist )
(PID.TID 0000.0001) //
(PID.TID 0000.0001) tRef =   /* Reference temperature profile ( oC or oK ) */
(PID.TID 0000.0001)                 2.900000000000000E+01,      /* K =  1 */
(PID.TID 0000.0001)                 2.800000000000000E+01,      /* K =  2 */
(PID.TID 0000.0001)                 2.700000000000000E+01,      /* K =  3 */
(PID.TID 0000.0001)                 2.600000000000000E+01,      /* K =  4 */
(PID.TID 0000.0001)                 2.500000000000000E+01,      /* K =  5 */
(PID.TID 0000.0001)                 2.400000000000000E+01,      /* K =  6 */
(PID.TID 0000.0001)                 2.300000000000000E+01,      /* K =  7 */
(PID.TID 0000.0001)                 2.200000000000000E+01,      /* K =  8 */
(PID.TID 0000.0001)                 2.100000000000000E+01,      /* K =  9 */
(PID.TID 0000.0001)                 2.000000000000000E+01,      /* K = 10 */
(PID.TID 0000.0001)                 1.900000000000000E+01,      /* K = 11 */
(PID.TID 0000.0001)                 1.800000000000000E+01,      /* K = 12 */
(PID.TID 0000.0001)                 1.700000000000000E+01,      /* K = 13 */
(PID.TID 0000.0001)                 1.600000000000000E+01,      /* K = 14 */
(PID.TID 0000.0001)                 1.500000000000000E+01,      /* K = 15 */
(PID.TID 0000.0001)                 1.400000000000000E+01,      /* K = 16 */
(PID.TID 0000.0001)                 1.300000000000000E+01,      /* K = 17 */
(PID.TID 0000.0001)                 1.200000000000000E+01,      /* K = 18 */
(PID.TID 0000.0001)                 1.100000000000000E+01,      /* K = 19 */
(PID.TID 0000.0001)                 1.000000000000000E+01,      /* K = 20 */
(PID.TID 0000.0001)                 9.000000000000000E+00,      /* K = 21 */
(PID.TID 0000.0001)                 8.000000000000000E+00,      /* K = 22 */
(PID.TID 0000.0001)                 7.000000000000000E+00       /* K = 23 */
(PID.TID 0000.0001)     ;
(PID.TID 0000.0001) sRef =   /* Reference salinity profile ( ppt ) */
(PID.TID 0000.0001)    23 @  0.000000000000000E+00              /* K =  1: 23 */
(PID.TID 0000.0001)     ;
(PID.TID 0000.0001) viscAh =   /* Lateral eddy viscosity ( m^2/s ) */
(PID.TID 0000.0001)                 5.000000000000000E+04
(PID.TID 0000.0001)     ;
(PID.TID 0000.0001) viscAh =   /* Lateral biharmonic viscosity ( m^4/s ) */
(PID.TID 0000.0001)                 5.000000000000000E+12
(PID.TID 0000.0001)     ;
(PID.TID 0000.0001) no_slip_sides =  /* Viscous BCs: No-slip sides */
(PID.TID 0000.0001)                   F
(PID.TID 0000.0001)     ;
(PID.TID 0000.0001) viscAz =   /* Vertical eddy viscosity ( m^2/s ) */
(PID.TID 0000.0001)                 1.000000000000000E-03
(PID.TID 0000.0001)     ;
(PID.TID 0000.0001) viscAr =   /* Vertical eddy viscosity ( units of r^2/s ) */
(PID.TID 0000.0001)                 1.000000000000000E-03
(PID.TID 0000.0001)     ;
(PID.TID 0000.0001) diffKhT =   /* Laplacian diffusion of heat laterally ( m^2/s ) */
(PID.TID 0000.0001)                 1.000000000000000E+03
(PID.TID 0000.0001)     ;
(PID.TID 0000.0001) diffK4T =   /* Bihaarmonic diffusion of heat laterally ( m^4/s ) */
(PID.TID 0000.0001)                 0.000000000000000E+00
(PID.TID 0000.0001)     ;
(PID.TID 0000.0001) diffKzT =   /* Laplacian diffusion of heat vertically ( m^2/s ) */
(PID.TID 0000.0001)                 1.000000000000000E-05
(PID.TID 0000.0001)     ;
(PID.TID 0000.0001) diffKrT =   /* Laplacian diffusion of heat vertically ( m^2/s ) */
(PID.TID 0000.0001)                 1.000000000000000E-05
(PID.TID 0000.0001)     ;
(PID.TID 0000.0001) diffKhS =   /* Laplacian diffusion of salt laterally ( m^2/s ) */
(PID.TID 0000.0001)                 1.000000000000000E+03
(PID.TID 0000.0001)     ;
(PID.TID 0000.0001) diffK4S =   /* Bihaarmonic diffusion of salt laterally ( m^4/s ) */
(PID.TID 0000.0001)                 0.000000000000000E+00
(PID.TID 0000.0001)     ;
(PID.TID 0000.0001) diffKzS =   /* Laplacian diffusion of salt vertically ( m^2/s ) */
(PID.TID 0000.0001)                 1.000000000000000E-05
(PID.TID 0000.0001)     ;
(PID.TID 0000.0001) diffKrS =   /* Laplacian diffusion of salt vertically ( m^2/s ) */
(PID.TID 0000.0001)                 1.000000000000000E-05
(PID.TID 0000.0001)     ;
(PID.TID 0000.0001) tAlpha =   /* Linear EOS thermal expansion coefficient ( 1/degree ) */
(PID.TID 0000.0001)                 2.000000000000000E-04
(PID.TID 0000.0001)     ;
(PID.TID 0000.0001) sBeta =   /* Linear EOS haline contraction coefficient ( 1/ppt ) */
(PID.TID 0000.0001)                 7.400000000000000E-04
(PID.TID 0000.0001)     ;
(PID.TID 0000.0001)   1  13.499  32.600  24.480  -0.201   0.771  -0.005  -0.002   0.000   0.000   0.000   0.000   0.000
(PID.TID 0000.0001)   2  13.498  32.600  24.525  -0.202   0.771  -0.005  -0.002   0.000   0.000   0.000   0.000   0.000
(PID.TID 0000.0001)   3  13.496  32.600  24.581  -0.202   0.771  -0.005  -0.002   0.000   0.000   0.000   0.000   0.000
(PID.TID 0000.0001)   4  13.494  32.600  24.660  -0.202   0.771  -0.005  -0.002   0.000   0.000   0.000   0.000   0.000
(PID.TID 0000.0001)   5  13.491  32.600  24.750  -0.203   0.771  -0.005  -0.002   0.000   0.000   0.000   0.000   0.000
(PID.TID 0000.0001)   6  13.488  32.600  24.851  -0.203   0.770  -0.005  -0.002   0.000   0.000   0.000   0.000   0.000
(PID.TID 0000.0001)   7  13.484  32.600  24.985  -0.204   0.770  -0.005  -0.002   0.000   0.000   0.000   0.000   0.000
(PID.TID 0000.0001)   8  13.478  32.600  25.176  -0.204   0.770  -0.005  -0.002   0.000   0.000   0.000   0.000   0.000
(PID.TID 0000.0001)   9  13.469  32.600  25.456  -0.205   0.769  -0.005  -0.002   0.000   0.000   0.000   0.000   0.000
(PID.TID 0000.0001)  10   8.467  35.150  28.748  -0.163   0.781  -0.005  -0.002   0.001   0.000   0.000   0.000   0.000
(PID.TID 0000.0001)  11   8.454  35.150  29.315  -0.166   0.780  -0.005  -0.002   0.001   0.000   0.000   0.000   0.000
(PID.TID 0000.0001)  12   5.946  34.900  30.300  -0.143   0.785  -0.006  -0.002   0.001   0.000   0.000   0.000   0.000
(PID.TID 0000.0001)  13   4.433  34.900  31.591  -0.132   0.786  -0.006  -0.003   0.000   0.000   0.000   0.000   0.000
(PID.TID 0000.0001)  14   3.909  34.750  32.966  -0.134   0.785  -0.006  -0.003   0.000   0.000   0.000   0.000   0.000
(PID.TID 0000.0001)  15   1.899  34.800  35.002  -0.121   0.787  -0.006  -0.003   0.000   0.000   0.000   0.000   0.000
(PID.TID 0000.0001)  16   1.372  34.750  36.991  -0.127   0.785  -0.006  -0.003  -0.001   0.000   0.000   0.000   0.000
(PID.TID 0000.0001)  17   1.332  34.800  39.171  -0.140   0.782  -0.006  -0.003  -0.001   0.000   0.000   0.000   0.000
(PID.TID 0000.0001)  18   0.797  34.800  41.472  -0.147   0.779  -0.006  -0.003  -0.001   0.000   0.000   0.000   0.000
(PID.TID 0000.0001)  19   0.749  34.800  43.682  -0.160   0.775  -0.005  -0.002  -0.002   0.000   0.000   0.000   0.000
(PID.TID 0000.0001)  20   0.214  34.750  45.912  -0.168   0.772  -0.005  -0.002  -0.002   0.000   0.000   0.000   0.000
(PID.TID 0000.0001)  21   0.160  34.750  48.080  -0.181   0.768  -0.005  -0.002  -0.003   0.000   0.000   0.000   0.000
(PID.TID 0000.0001)  22   0.584  34.750  50.131  -0.197   0.763  -0.005  -0.002  -0.001   0.000   0.000   0.000   0.000
(PID.TID 0000.0001)  23   0.522  34.750  52.248  -0.209   0.760  -0.005  -0.002  -0.002   0.000   0.000   0.000   0.000
(PID.TID 0000.0001) rhonil =   /* Reference density ( kg/m^3 ) */
(PID.TID 0000.0001)                 9.998000000000000E+02
(PID.TID 0000.0001)     ;
(PID.TID 0000.0001) rhoConst =   /* Reference density ( kg/m^3 ) */
(PID.TID 0000.0001)                 9.998000000000000E+02
(PID.TID 0000.0001)     ;
(PID.TID 0000.0001) gravity =   /* Gravitational acceleration ( m/s^2 ) */
(PID.TID 0000.0001)                 9.810000000000000E+00
(PID.TID 0000.0001)     ;
(PID.TID 0000.0001) gBaro =   /* Barotropic gravity ( m/s^2 ) */
(PID.TID 0000.0001)                 9.810000000000000E+00
(PID.TID 0000.0001)     ;
(PID.TID 0000.0001) f0 =   /* Reference coriolis parameter ( 1/s ) */
(PID.TID 0000.0001)                 1.000000000000000E-04
(PID.TID 0000.0001)     ;
(PID.TID 0000.0001) beta =   /* Beta ( 1/(m.s) ) */
(PID.TID 0000.0001)                 9.999999999999999E-12
(PID.TID 0000.0001)     ;
(PID.TID 0000.0001) freeSurfFac =   /* Implicit free surface factor */
(PID.TID 0000.0001)                 1.000000000000000E+00
(PID.TID 0000.0001)     ;
(PID.TID 0000.0001) implicitFreeSurface =   /* Implicit free surface on/off flag */
(PID.TID 0000.0001)                   T
(PID.TID 0000.0001)     ;
(PID.TID 0000.0001) rigidLid =   /* Rigid lid on/off flag */
(PID.TID 0000.0001)                   F
(PID.TID 0000.0001)     ;
(PID.TID 0000.0001) implicSurfPress =   /* Surface Pressure implicit factor (0-1)*/
(PID.TID 0000.0001)                 1.000000000000000E+00
(PID.TID 0000.0001)     ;
(PID.TID 0000.0001) implicDiv2Dflow =   /* Barot. Flow Div. implicit factor (0-1)*/
(PID.TID 0000.0001)                 1.000000000000000E+00
(PID.TID 0000.0001)     ;
(PID.TID 0000.0001) staggerTimeStep =   /* Stagger time stepping on/off flag */
(PID.TID 0000.0001)                   F
(PID.TID 0000.0001)     ;
(PID.TID 0000.0001) momStepping =  /* Momentum equation on/off flag */
(PID.TID 0000.0001)                   T
(PID.TID 0000.0001)     ;
(PID.TID 0000.0001) momAdvection =  /* Momentum advection on/off flag */
(PID.TID 0000.0001)                   T
(PID.TID 0000.0001)     ;
(PID.TID 0000.0001) momViscosity =  /* Momentum viscosity on/off flag */
(PID.TID 0000.0001)                   T
(PID.TID 0000.0001)     ;
(PID.TID 0000.0001) useCoriolis =  /* Coriolis on/off flag */
(PID.TID 0000.0001)                   T
(PID.TID 0000.0001)     ;
(PID.TID 0000.0001) momForcing =  /* Momentum forcing on/off flag */
(PID.TID 0000.0001)                   T
(PID.TID 0000.0001)     ;
(PID.TID 0000.0001) momPressureForcing =  /* Momentum pressure term on/off flag */
(PID.TID 0000.0001)                   T
(PID.TID 0000.0001)     ;
(PID.TID 0000.0001) tempStepping =  /* Temperature equation on/off flag */
(PID.TID 0000.0001)                   T
(PID.TID 0000.0001)     ;
(PID.TID 0000.0001) nonHydrostatic =  /* Non-Hydrostatic on/off flag */
(PID.TID 0000.0001)                   F
(PID.TID 0000.0001)     ;
(PID.TID 0000.0001) //
(PID.TID 0000.0001) // Elliptic solver(s) paramters ( PARM02 in namelist )
(PID.TID 0000.0001) //
(PID.TID 0000.0001) cg2dMaxIters =   /* Upper limit on 2d con. grad iterations  */
(PID.TID 0000.0001)                    1000
(PID.TID 0000.0001)     ;
(PID.TID 0000.0001) cg2dChkResFreq =   /* 2d con. grad convergence test frequency */
(PID.TID 0000.0001)                       1
(PID.TID 0000.0001)     ;
(PID.TID 0000.0001) cg2dTargetResidual =   /* 2d con. grad target residual  */
(PID.TID 0000.0001)                 1.000000000000000E-13
(PID.TID 0000.0001)     ;
(PID.TID 0000.0001) //
(PID.TID 0000.0001) // Time stepping paramters ( PARM03 in namelist )
(PID.TID 0000.0001) //
(PID.TID 0000.0001) nIter0 =   /* Base timestep number  */
(PID.TID 0000.0001)                       0
(PID.TID 0000.0001)     ;
(PID.TID 0000.0001) nTimeSteps =   /* Number of timesteps */
(PID.TID 0000.0001)                      20
(PID.TID 0000.0001)     ;
(PID.TID 0000.0001) deltatTmom =   /* Momentum equation timestep ( s ) */
(PID.TID 0000.0001)                 3.600000000000000E+03
(PID.TID 0000.0001)     ;
(PID.TID 0000.0001) deltatTtracer =   /* Tracer equation timestep ( s ) */
(PID.TID 0000.0001)                 3.600000000000000E+03
(PID.TID 0000.0001)     ;
(PID.TID 0000.0001) deltatTClock  =   /* Model clock timestep ( s ) */
(PID.TID 0000.0001)                 3.600000000000000E+03
(PID.TID 0000.0001)     ;
(PID.TID 0000.0001) cAdjFreq =   /* Convective adjustment interval ( s ) */
(PID.TID 0000.0001)                 0.000000000000000E+00
(PID.TID 0000.0001)     ;
(PID.TID 0000.0001) abeps =   /* Adams-Bashforth stabilizing weight */
(PID.TID 0000.0001)                 1.000000000000000E-01
(PID.TID 0000.0001)     ;
(PID.TID 0000.0001) tauCD =   /* CD coupling time-scale ( s ) */
(PID.TID 0000.0001)                 1.728000000000000E+05
(PID.TID 0000.0001)     ;
(PID.TID 0000.0001) rCD =   /* Normalised CD coupling parameter */
(PID.TID 0000.0001)                 9.791666666666666E-01
(PID.TID 0000.0001)     ;
(PID.TID 0000.0001) startTime =   /* Run start time ( s ). */
(PID.TID 0000.0001)                 0.000000000000000E+00
(PID.TID 0000.0001)     ;
(PID.TID 0000.0001) endTime =   /* Integration ending time ( s ). */
(PID.TID 0000.0001)                 7.200000000000000E+04
(PID.TID 0000.0001)     ;
(PID.TID 0000.0001) pChkPtFreq =   /* Permanent restart/checkpoint file interval ( s ). */
(PID.TID 0000.0001)                 0.000000000000000E+00
(PID.TID 0000.0001)     ;
(PID.TID 0000.0001) chkPtFreq =   /* Rolling restart/checkpoint file interval ( s ). */
(PID.TID 0000.0001)                 0.000000000000000E+00
(PID.TID 0000.0001)     ;
(PID.TID 0000.0001) dumpFreq =   /* Model state write out interval ( s ). */
(PID.TID 0000.0001)                 8.640000000000000E+05
(PID.TID 0000.0001)     ;
(PID.TID 0000.0001) //
(PID.TID 0000.0001) // Gridding paramters ( PARM04 in namelist )
(PID.TID 0000.0001) //
(PID.TID 0000.0001) usingCartesianGrid =   /* Cartesian coordinates flag ( True / False ) */
(PID.TID 0000.0001)                   F
(PID.TID 0000.0001)     ;
(PID.TID 0000.0001) usingSphericalPolarGrid =   /* Spherical coordinates flag ( True / False ) */
(PID.TID 0000.0001)                   T
(PID.TID 0000.0001)     ;
(PID.TID 0000.0001) groundAtK1 =   /* Lower Boundary (ground) at the surface(k=1) ( T / F ) */
(PID.TID 0000.0001)                   F
(PID.TID 0000.0001)     ;
(PID.TID 0000.0001) Ro_SeaLevel =   /* r(1) ( units of r ) */
(PID.TID 0000.0001)                 0.000000000000000E+00
(PID.TID 0000.0001)     ;
(PID.TID 0000.0001) rkFac =   /* minus Vertical index orientation  */
(PID.TID 0000.0001)                 1.000000000000000E+00
(PID.TID 0000.0001)     ;
(PID.TID 0000.0001) horiVertRatio =   /* Ratio on units : Horiz - Vertical */
(PID.TID 0000.0001)                 1.000000000000000E+00
(PID.TID 0000.0001)     ;
(PID.TID 0000.0001) delZ =   /* W spacing ( m ) */
(PID.TID 0000.0001)     2 @  1.000000000000000E+01,             /* K =  1:  2 */
(PID.TID 0000.0001)                 1.500000000000000E+01,      /* K =  3 */
(PID.TID 0000.0001)     2 @  2.000000000000000E+01,             /* K =  4:  5 */
(PID.TID 0000.0001)                 2.500000000000000E+01,      /* K =  6 */
(PID.TID 0000.0001)                 3.500000000000000E+01,      /* K =  7 */
(PID.TID 0000.0001)                 5.000000000000000E+01,      /* K =  8 */
(PID.TID 0000.0001)                 7.500000000000000E+01,      /* K =  9 */
(PID.TID 0000.0001)                 1.000000000000000E+02,      /* K = 10 */
(PID.TID 0000.0001)                 1.500000000000000E+02,      /* K = 11 */
(PID.TID 0000.0001)                 2.000000000000000E+02,      /* K = 12 */
(PID.TID 0000.0001)                 2.750000000000000E+02,      /* K = 13 */
(PID.TID 0000.0001)                 3.500000000000000E+02,      /* K = 14 */
(PID.TID 0000.0001)                 4.150000000000000E+02,      /* K = 15 */
(PID.TID 0000.0001)                 4.500000000000000E+02,      /* K = 16 */
(PID.TID 0000.0001)     7 @  5.000000000000000E+02              /* K = 17: 23 */
(PID.TID 0000.0001)     ;
(PID.TID 0000.0001) delP =   /* W spacing ( Pa ) */
(PID.TID 0000.0001)    23 @  1.234567000000000E+05              /* K =  1: 23 */
(PID.TID 0000.0001)     ;
(PID.TID 0000.0001) delR =   /* W spacing ( units of r ) */
(PID.TID 0000.0001)     2 @  1.000000000000000E+01,             /* K =  1:  2 */
(PID.TID 0000.0001)                 1.500000000000000E+01,      /* K =  3 */
(PID.TID 0000.0001)     2 @  2.000000000000000E+01,             /* K =  4:  5 */
(PID.TID 0000.0001)                 2.500000000000000E+01,      /* K =  6 */
(PID.TID 0000.0001)                 3.500000000000000E+01,      /* K =  7 */
(PID.TID 0000.0001)                 5.000000000000000E+01,      /* K =  8 */
(PID.TID 0000.0001)                 7.500000000000000E+01,      /* K =  9 */
(PID.TID 0000.0001)                 1.000000000000000E+02,      /* K = 10 */
(PID.TID 0000.0001)                 1.500000000000000E+02,      /* K = 11 */
(PID.TID 0000.0001)                 2.000000000000000E+02,      /* K = 12 */
(PID.TID 0000.0001)                 2.750000000000000E+02,      /* K = 13 */
(PID.TID 0000.0001)                 3.500000000000000E+02,      /* K = 14 */
(PID.TID 0000.0001)                 4.150000000000000E+02,      /* K = 15 */
(PID.TID 0000.0001)                 4.500000000000000E+02,      /* K = 16 */
(PID.TID 0000.0001)     7 @  5.000000000000000E+02              /* K = 17: 23 */
(PID.TID 0000.0001)     ;
(PID.TID 0000.0001) delX =   /* U spacing ( m - cartesian, degrees - spherical ) */
(PID.TID 0000.0001)    20 @  2.000000000000000E+00              /* I =  1: 20 */
(PID.TID 0000.0001)     ;
(PID.TID 0000.0001) delY =   /* V spacing ( m - cartesian, degrees - spherical ) */
(PID.TID 0000.0001)    16 @  2.000000000000000E+00              /* J =  1: 16 */
(PID.TID 0000.0001)     ;
(PID.TID 0000.0001) phiMin =    /* South edge (ignored - cartesian, degrees - spherical ) */
(PID.TID 0000.0001)                 1.000000000000000E+01
(PID.TID 0000.0001)     ;
(PID.TID 0000.0001) thetaMin =    /* West edge ( ignored - cartesian, degrees - spherical ) */
(PID.TID 0000.0001)                -4.200000000000000E+01
(PID.TID 0000.0001)     ;
(PID.TID 0000.0001) rSphere =    /* Radius ( ignored - cartesian, m - spherical ) */
(PID.TID 0000.0001)                 6.370000000000000E+06
(PID.TID 0000.0001)     ;
(PID.TID 0000.0001) xcoord =   /* P-point X coord ( m - cartesian, degrees - spherical ) */
(PID.TID 0000.0001)                -4.100000000000000E+01,      /* I =  1 */
(PID.TID 0000.0001)                -3.900000000000000E+01,      /* I =  2 */
(PID.TID 0000.0001)                -3.700000000000000E+01,      /* I =  3 */
(PID.TID 0000.0001)                -3.500000000000000E+01,      /* I =  4 */
(PID.TID 0000.0001)                -3.300000000000000E+01,      /* I =  5 */
(PID.TID 0000.0001)                -3.100000000000000E+01,      /* I =  6 */
(PID.TID 0000.0001)                -2.900000000000000E+01,      /* I =  7 */
(PID.TID 0000.0001)                -2.700000000000000E+01,      /* I =  8 */
(PID.TID 0000.0001)                -2.500000000000000E+01,      /* I =  9 */
(PID.TID 0000.0001)                -2.300000000000000E+01,      /* I = 10 */
(PID.TID 0000.0001)                -2.100000000000000E+01,      /* I = 11 */
(PID.TID 0000.0001)                -1.900000000000000E+01,      /* I = 12 */
(PID.TID 0000.0001)                -1.700000000000000E+01,      /* I = 13 */
(PID.TID 0000.0001)                -1.500000000000000E+01,      /* I = 14 */
(PID.TID 0000.0001)                -1.300000000000000E+01,      /* I = 15 */
(PID.TID 0000.0001)                -1.100000000000000E+01,      /* I = 16 */
(PID.TID 0000.0001)                -9.000000000000000E+00,      /* I = 17 */
(PID.TID 0000.0001)                -7.000000000000000E+00,      /* I = 18 */
(PID.TID 0000.0001)                -5.000000000000000E+00,      /* I = 19 */
(PID.TID 0000.0001)                -3.000000000000000E+00       /* I = 20 */
(PID.TID 0000.0001)     ;
(PID.TID 0000.0001) ycoord =   /* P-point Y coord ( m - cartesian, degrees - spherical ) */
(PID.TID 0000.0001)                 1.100000000000000E+01,      /* J =  1 */
(PID.TID 0000.0001)                 1.300000000000000E+01,      /* J =  2 */
(PID.TID 0000.0001)                 1.500000000000000E+01,      /* J =  3 */
(PID.TID 0000.0001)                 1.700000000000000E+01,      /* J =  4 */
(PID.TID 0000.0001)                 1.900000000000000E+01,      /* J =  5 */
(PID.TID 0000.0001)                 2.100000000000000E+01,      /* J =  6 */
(PID.TID 0000.0001)                 2.300000000000000E+01,      /* J =  7 */
(PID.TID 0000.0001)                 2.500000000000000E+01,      /* J =  8 */
(PID.TID 0000.0001)                 2.700000000000000E+01,      /* J =  9 */
(PID.TID 0000.0001)                 2.900000000000000E+01,      /* J = 10 */
(PID.TID 0000.0001)                 3.100000000000000E+01,      /* J = 11 */
(PID.TID 0000.0001)                 3.300000000000000E+01,      /* J = 12 */
(PID.TID 0000.0001)                 3.500000000000000E+01,      /* J = 13 */
(PID.TID 0000.0001)                 3.700000000000000E+01,      /* J = 14 */
(PID.TID 0000.0001)                 3.900000000000000E+01,      /* J = 15 */
(PID.TID 0000.0001)                 4.100000000000000E+01       /* J = 16 */
(PID.TID 0000.0001)     ;
(PID.TID 0000.0001) rcoord =   /* P-point R coordinate (  units of r ) */
(PID.TID 0000.0001)                -5.000000000000000E+00,      /* K =  1 */
(PID.TID 0000.0001)                -1.500000000000000E+01,      /* K =  2 */
(PID.TID 0000.0001)                -2.750000000000000E+01,      /* K =  3 */
(PID.TID 0000.0001)                -4.500000000000000E+01,      /* K =  4 */
(PID.TID 0000.0001)                -6.500000000000000E+01,      /* K =  5 */
(PID.TID 0000.0001)                -8.750000000000000E+01,      /* K =  6 */
(PID.TID 0000.0001)                -1.175000000000000E+02,      /* K =  7 */
(PID.TID 0000.0001)                -1.600000000000000E+02,      /* K =  8 */
(PID.TID 0000.0001)                -2.225000000000000E+02,      /* K =  9 */
(PID.TID 0000.0001)                -3.100000000000000E+02,      /* K = 10 */
(PID.TID 0000.0001)                -4.350000000000000E+02,      /* K = 11 */
(PID.TID 0000.0001)                -6.100000000000000E+02,      /* K = 12 */
(PID.TID 0000.0001)                -8.475000000000000E+02,      /* K = 13 */
(PID.TID 0000.0001)                -1.160000000000000E+03,      /* K = 14 */
(PID.TID 0000.0001)                -1.542500000000000E+03,      /* K = 15 */
(PID.TID 0000.0001)                -1.975000000000000E+03,      /* K = 16 */
(PID.TID 0000.0001)                -2.450000000000000E+03,      /* K = 17 */
(PID.TID 0000.0001)                -2.950000000000000E+03,      /* K = 18 */
(PID.TID 0000.0001)                -3.450000000000000E+03,      /* K = 19 */
(PID.TID 0000.0001)                -3.950000000000000E+03,      /* K = 20 */
(PID.TID 0000.0001)                -4.450000000000000E+03,      /* K = 21 */
(PID.TID 0000.0001)                -4.950000000000000E+03,      /* K = 22 */
(PID.TID 0000.0001)                -5.450000000000000E+03       /* K = 23 */
(PID.TID 0000.0001)     ;
(PID.TID 0000.0001) dxF =  /* dxF(:,1,:,1) ( m - cartesian, degrees - spherical ) */
(PID.TID 0000.0001)    20 @  2.182696600587791E+05              /* I =  1: 20 */
(PID.TID 0000.0001)     ;
(PID.TID 0000.0001) dxF =  /* dxF(1,:,1,:) ( m - cartesian, degrees - spherical ) */
(PID.TID 0000.0001)                 2.182696600587791E+05,      /* J =  1 */
(PID.TID 0000.0001)                 2.166560038253696E+05,      /* J =  2 */
(PID.TID 0000.0001)                 2.147783856245979E+05,      /* J =  3 */
(PID.TID 0000.0001)                 2.126390930450167E+05,      /* J =  4 */
(PID.TID 0000.0001)                 2.102407324851014E+05,      /* J =  5 */
(PID.TID 0000.0001)                 2.075862259777553E+05,      /* J =  6 */
(PID.TID 0000.0001)                 2.046788076302621E+05,      /* J =  7 */
(PID.TID 0000.0001)                 2.015220196840248E+05,      /* J =  8 */
(PID.TID 0000.0001)                 1.981197081988899E+05,      /* J =  9 */
(PID.TID 0000.0001)                 1.944760183673163E+05,      /* J = 10 */
(PID.TID 0000.0001)                 1.905953894640962E+05,      /* J = 11 */
(PID.TID 0000.0001)                 1.864825494377832E+05,      /* J = 12 */
(PID.TID 0000.0001)                 1.821425091504150E+05,      /* J = 13 */
(PID.TID 0000.0001)                 1.775805562725496E+05,      /* J = 14 */
(PID.TID 0000.0001)                 1.728022488410539E+05,      /* J = 15 */
(PID.TID 0000.0001)                 1.678134084874913E+05       /* J = 16 */
(PID.TID 0000.0001)     ;
(PID.TID 0000.0001) dyF =  /* dyF(:,1,:,1) ( m - cartesian, degrees - spherical ) */
(PID.TID 0000.0001)    20 @  2.223549467040776E+05              /* I =  1: 20 */
(PID.TID 0000.0001)     ;
(PID.TID 0000.0001) dyF =  /* dyF(1,:,1,:) ( m - cartesian, degrees - spherical ) */
(PID.TID 0000.0001)    16 @  2.223549467040776E+05              /* J =  1: 16 */
(PID.TID 0000.0001)     ;
(PID.TID 0000.0001) dxG =  /* dxG(:,1,:,1) ( m - cartesian, degrees - spherical ) */
(PID.TID 0000.0001)    20 @  2.189768754347919E+05              /* I =  1: 20 */
(PID.TID 0000.0001)     ;
(PID.TID 0000.0001) dxG =  /* dxG(1,:,1,:) ( m - cartesian, degrees - spherical ) */
(PID.TID 0000.0001)                 2.189768754347919E+05,      /* J =  1 */
(PID.TID 0000.0001)                 2.174959576298867E+05,      /* J =  2 */
(PID.TID 0000.0001)                 2.157500545032935E+05,      /* J =  3 */
(PID.TID 0000.0001)                 2.137412931690361E+05,      /* J =  4 */
(PID.TID 0000.0001)                 2.114721209933746E+05,      /* J =  5 */
(PID.TID 0000.0001)                 2.089453026130656E+05,      /* J =  6 */
(PID.TID 0000.0001)                 2.061639165670793E+05,      /* J =  7 */
(PID.TID 0000.0001)                 2.031313515458727E+05,      /* J =  8 */
(PID.TID 0000.0001)                 1.998513022627935E+05,      /* J =  9 */
(PID.TID 0000.0001)                 1.963277649526403E+05,      /* J = 10 */
(PID.TID 0000.0001)                 1.925650325028661E+05,      /* J = 11 */
(PID.TID 0000.0001)                 1.885676892233566E+05,      /* J = 12 */
(PID.TID 0000.0001)                 1.843406052611541E+05,      /* J = 13 */
(PID.TID 0000.0001)                 1.798889306669345E+05,      /* J = 14 */
(PID.TID 0000.0001)                 1.752180891204627E+05,      /* J = 15 */
(PID.TID 0000.0001)                 1.703337713226752E+05       /* J = 16 */
(PID.TID 0000.0001)     ;
(PID.TID 0000.0001) dyG =  /* dyG(:,1,:,1) ( m - cartesian, degrees - spherical ) */
(PID.TID 0000.0001)    20 @  2.223549467040776E+05              /* I =  1: 20 */
(PID.TID 0000.0001)     ;
(PID.TID 0000.0001) dyG =  /* dyG(1,:,1,:) ( m - cartesian, degrees - spherical ) */
(PID.TID 0000.0001)    16 @  2.223549467040776E+05              /* J =  1: 16 */
(PID.TID 0000.0001)     ;
(PID.TID 0000.0001) dxC =  /* dxC(:,1,:,1) ( m - cartesian, degrees - spherical ) */
(PID.TID 0000.0001)    20 @  2.182696600587791E+05              /* I =  1: 20 */
(PID.TID 0000.0001)     ;
(PID.TID 0000.0001) dxC =  /* dxC(1,:,1,:) ( m - cartesian, degrees - spherical ) */
(PID.TID 0000.0001)                 2.182696600587791E+05,      /* J =  1 */
(PID.TID 0000.0001)                 2.166560038253696E+05,      /* J =  2 */
(PID.TID 0000.0001)                 2.147783856245979E+05,      /* J =  3 */
(PID.TID 0000.0001)                 2.126390930450167E+05,      /* J =  4 */
(PID.TID 0000.0001)                 2.102407324851014E+05,      /* J =  5 */
(PID.TID 0000.0001)                 2.075862259777553E+05,      /* J =  6 */
(PID.TID 0000.0001)                 2.046788076302621E+05,      /* J =  7 */
(PID.TID 0000.0001)                 2.015220196840248E+05,      /* J =  8 */
(PID.TID 0000.0001)                 1.981197081988899E+05,      /* J =  9 */
(PID.TID 0000.0001)                 1.944760183673163E+05,      /* J = 10 */
(PID.TID 0000.0001)                 1.905953894640962E+05,      /* J = 11 */
(PID.TID 0000.0001)                 1.864825494377832E+05,      /* J = 12 */
(PID.TID 0000.0001)                 1.821425091504150E+05,      /* J = 13 */
(PID.TID 0000.0001)                 1.775805562725496E+05,      /* J = 14 */
(PID.TID 0000.0001)                 1.728022488410539E+05,      /* J = 15 */
(PID.TID 0000.0001)                 1.678134084874913E+05       /* J = 16 */
(PID.TID 0000.0001)     ;
(PID.TID 0000.0001) dyC =  /* dyC(:,1,:,1) ( m - cartesian, degrees - spherical ) */
(PID.TID 0000.0001)    20 @  2.223549467040776E+05              /* I =  1: 20 */
(PID.TID 0000.0001)     ;
(PID.TID 0000.0001) dyC =  /* dyC(1,:,1,:) ( m - cartesian, degrees - spherical ) */
(PID.TID 0000.0001)    16 @  2.223549467040776E+05              /* J =  1: 16 */
(PID.TID 0000.0001)     ;
(PID.TID 0000.0001) dxV =  /* dxV(:,1,:,1) ( m - cartesian, degrees - spherical ) */
(PID.TID 0000.0001)    20 @  2.189768754347919E+05              /* I =  1: 20 */
(PID.TID 0000.0001)     ;
(PID.TID 0000.0001) dxV =  /* dxV(1,:,1,:) ( m - cartesian, degrees - spherical ) */
(PID.TID 0000.0001)                 2.189768754347919E+05,      /* J =  1 */
(PID.TID 0000.0001)                 2.174959576298867E+05,      /* J =  2 */
(PID.TID 0000.0001)                 2.157500545032935E+05,      /* J =  3 */
(PID.TID 0000.0001)                 2.137412931690361E+05,      /* J =  4 */
(PID.TID 0000.0001)                 2.114721209933746E+05,      /* J =  5 */
(PID.TID 0000.0001)                 2.089453026130656E+05,      /* J =  6 */
(PID.TID 0000.0001)                 2.061639165670793E+05,      /* J =  7 */
(PID.TID 0000.0001)                 2.031313515458727E+05,      /* J =  8 */
(PID.TID 0000.0001)                 1.998513022627935E+05,      /* J =  9 */
(PID.TID 0000.0001)                 1.963277649526403E+05,      /* J = 10 */
(PID.TID 0000.0001)                 1.925650325028661E+05,      /* J = 11 */
(PID.TID 0000.0001)                 1.885676892233566E+05,      /* J = 12 */
(PID.TID 0000.0001)                 1.843406052611541E+05,      /* J = 13 */
(PID.TID 0000.0001)                 1.798889306669345E+05,      /* J = 14 */
(PID.TID 0000.0001)                 1.752180891204627E+05,      /* J = 15 */
(PID.TID 0000.0001)                 1.703337713226752E+05       /* J = 16 */
(PID.TID 0000.0001)     ;
(PID.TID 0000.0001) dyU =  /* dyU(:,1,:,1) ( m - cartesian, degrees - spherical ) */
(PID.TID 0000.0001)    20 @  2.223549467040776E+05              /* I =  1: 20 */
(PID.TID 0000.0001)     ;
(PID.TID 0000.0001) dyU =  /* dyU(1,:,1,:) ( m - cartesian, degrees - spherical ) */
(PID.TID 0000.0001)    16 @  2.223549467040776E+05              /* J =  1: 16 */
(PID.TID 0000.0001)     ;
(PID.TID 0000.0001) rA =  /* rA(:,1,:,1) ( m - cartesian, degrees - spherical ) */
(PID.TID 0000.0001)    20 @  4.853087465028469E+10              /* I =  1: 20 */
(PID.TID 0000.0001)     ;
(PID.TID 0000.0001) rA =  /* rA(1,:,1,:) ( m - cartesian, degrees - spherical ) */
(PID.TID 0000.0001)                 4.853087465028469E+10,      /* J =  1 */
(PID.TID 0000.0001)                 4.817208842057614E+10,      /* J =  2 */
(PID.TID 0000.0001)                 4.775461192146851E+10,      /* J =  3 */
(PID.TID 0000.0001)                 4.727895378376868E+10,      /* J =  4 */
(PID.TID 0000.0001)                 4.674569352364785E+10,      /* J =  5 */
(PID.TID 0000.0001)                 4.615548083659052E+10,      /* J =  6 */
(PID.TID 0000.0001)                 4.550903480584064E+10,      /* J =  7 */
(PID.TID 0000.0001)                 4.480714302630917E+10,      /* J =  8 */
(PID.TID 0000.0001)                 4.405066064501157E+10,      /* J =  9 */
(PID.TID 0000.0001)                 4.324050931920184E+10,      /* J = 10 */
(PID.TID 0000.0001)                 4.237767609347684E+10,      /* J = 11 */
(PID.TID 0000.0001)                 4.146321219721255E+10,      /* J = 12 */
(PID.TID 0000.0001)                 4.049823176380374E+10,      /* J = 13 */
(PID.TID 0000.0001)                 3.948391047326549E+10,      /* J = 14 */
(PID.TID 0000.0001)                 3.842148411984549E+10,      /* J = 15 */
(PID.TID 0000.0001)                 3.731224710640179E+10       /* J = 16 */
(PID.TID 0000.0001)     ;
(PID.TID 0000.0001) rAw =  /* rAw(:,1,:,1) ( m - cartesian, degrees - spherical ) */
(PID.TID 0000.0001)    20 @  4.853087465028469E+10              /* I =  1: 20 */
(PID.TID 0000.0001)     ;
(PID.TID 0000.0001) rAw =  /* rAw(1,:,1,:) ( m - cartesian, degrees - spherical ) */
(PID.TID 0000.0001)                 4.853087465028469E+10,      /* J =  1 */
(PID.TID 0000.0001)                 4.817208842057614E+10,      /* J =  2 */
(PID.TID 0000.0001)                 4.775461192146851E+10,      /* J =  3 */
(PID.TID 0000.0001)                 4.727895378376868E+10,      /* J =  4 */
(PID.TID 0000.0001)                 4.674569352364785E+10,      /* J =  5 */
(PID.TID 0000.0001)                 4.615548083659052E+10,      /* J =  6 */
(PID.TID 0000.0001)                 4.550903480584064E+10,      /* J =  7 */
(PID.TID 0000.0001)                 4.480714302630917E+10,      /* J =  8 */
(PID.TID 0000.0001)                 4.405066064501157E+10,      /* J =  9 */
(PID.TID 0000.0001)                 4.324050931920184E+10,      /* J = 10 */
(PID.TID 0000.0001)                 4.237767609347684E+10,      /* J = 11 */
(PID.TID 0000.0001)                 4.146321219721255E+10,      /* J = 12 */
(PID.TID 0000.0001)                 4.049823176380374E+10,      /* J = 13 */
(PID.TID 0000.0001)                 3.948391047326549E+10,      /* J = 14 */
(PID.TID 0000.0001)                 3.842148411984549E+10,      /* J = 15 */
(PID.TID 0000.0001)                 3.731224710640179E+10       /* J = 16 */
(PID.TID 0000.0001)     ;
(PID.TID 0000.0001) rAs =  /* rAs(:,1,:,1) ( m - cartesian, degrees - spherical ) */
(PID.TID 0000.0001)    20 @  4.868811950398895E+10              /* I =  1: 20 */
(PID.TID 0000.0001)     ;
(PID.TID 0000.0001) rAs =  /* rAs(1,:,1,:) ( m - cartesian, degrees - spherical ) */
(PID.TID 0000.0001)                 4.868811950398895E+10,      /* J =  1 */
(PID.TID 0000.0001)                 4.835884682203275E+10,      /* J =  2 */
(PID.TID 0000.0001)                 4.797065633433311E+10,      /* J =  3 */
(PID.TID 0000.0001)                 4.752402099120342E+10,      /* J =  4 */
(PID.TID 0000.0001)                 4.701948494900997E+10,      /* J =  5 */
(PID.TID 0000.0001)                 4.645766290720264E+10,      /* J =  6 */
(PID.TID 0000.0001)                 4.583923935939737E+10,      /* J =  7 */
(PID.TID 0000.0001)                 4.516496775942608E+10,      /* J =  8 */
(PID.TID 0000.0001)                 4.443566960336987E+10,      /* J =  9 */
(PID.TID 0000.0001)                 4.365223342869237E+10,      /* J = 10 */
(PID.TID 0000.0001)                 4.281561373169270E+10,      /* J = 11 */
(PID.TID 0000.0001)                 4.192682980460108E+10,      /* J = 12 */
(PID.TID 0000.0001)                 4.098696449372525E+10,      /* J = 13 */
(PID.TID 0000.0001)                 3.999716288017197E+10,      /* J = 14 */
(PID.TID 0000.0001)                 3.895863088473959E+10,      /* J = 15 */
(PID.TID 0000.0001)                 3.787263379869147E+10       /* J = 16 */
(PID.TID 0000.0001)     ;
(PID.TID 0000.0001) 
(PID.TID 0000.0001)  MDSREADFIELD: opening global file: kf_climtheta
(PID.TID 0000.0001) // =======================================================
(PID.TID 0000.0001) // Field Initial Temperature at iteration          1
(PID.TID 0000.0001) // CMIN =          1.840084838867188E+01
(PID.TID 0000.0001) // CMAX =          2.607793426513672E+01
(PID.TID 0000.0001) // CINT =          2.843365139431424E-01
(PID.TID 0000.0001) // SYMBOLS (CMIN->CMAX): -abcdefghijklmnopqrstuvwxyz+
(PID.TID 0000.0001) //                  0.0: .
(PID.TID 0000.0001) // RANGE I (Lo:Hi:Step):(   1:  20:   1)
(PID.TID 0000.0001) // RANGE J (Lo:Hi:Step):(  16:   1:  -1)
(PID.TID 0000.0001) // RANGE K (Lo:Hi:Step):(   1:   1:   1)
(PID.TID 0000.0001) // =======================================================
(PID.TID 0000.0001) K =   1
(PID.TID 0000.0001)                I=10      I=20
(PID.TID 0000.0001) |--J--|123456789|123456789|
(PID.TID 0000.0001)     16 ....................
(PID.TID 0000.0001)     15 .jihhgfeedddcba---a.
(PID.TID 0000.0001)     14 .kjiihggffeedcbbabb.
(PID.TID 0000.0001)     13 .lkkjiiiihgfedccbc..
(PID.TID 0000.0001)     12 .mllkkjjjihgfedcc...
(PID.TID 0000.0001)     11 .onnmmllkjihgfeec...
(PID.TID 0000.0001)     10 .rrqqponmmlkihf.....
(PID.TID 0000.0001)      9 .utssrqponmljh......
(PID.TID 0000.0001)      8 .vuttsrqponlig......
(PID.TID 0000.0001)      7 .vuutsrrponkif......
(PID.TID 0000.0001)      6 .wvvuutsrqomjh......
(PID.TID 0000.0001)      5 .yxwwwvutsrpnl......
(PID.TID 0000.0001)      4 .zyyyxxwwvutrq......
(PID.TID 0000.0001)      3 .zzzzyyxxxxwvu......
(PID.TID 0000.0001)      2 .+++++zzz+++zy......
(PID.TID 0000.0001)      1 ....................
(PID.TID 0000.0001) // =======================================================
(PID.TID 0000.0001) // END OF FIELD                                          =
(PID.TID 0000.0001) // =======================================================
(PID.TID 0000.0001) 
(PID.TID 0000.0001)  MDSREADFIELD: opening global file: kf_climsalt
(PID.TID 0000.0001) // =======================================================
(PID.TID 0000.0001) // Field Initial Salinity at iteration          1
(PID.TID 0000.0001) // CMIN =          3.501070022583008E+01
(PID.TID 0000.0001) // CMAX =          3.739887619018555E+01
(PID.TID 0000.0001) // CINT =          8.845096164279515E-02
(PID.TID 0000.0001) // SYMBOLS (CMIN->CMAX): -abcdefghijklmnopqrstuvwxyz+
(PID.TID 0000.0001) //                  0.0: .
(PID.TID 0000.0001) // RANGE I (Lo:Hi:Step):(   1:  20:   1)
(PID.TID 0000.0001) // RANGE J (Lo:Hi:Step):(  16:   1:  -1)
(PID.TID 0000.0001) // RANGE K (Lo:Hi:Step):(   1:   1:   1)
(PID.TID 0000.0001) // =======================================================
(PID.TID 0000.0001) K =   1
(PID.TID 0000.0001)                I=10      I=20
(PID.TID 0000.0001) |--J--|123456789|123456789|
(PID.TID 0000.0001)     16 ....................
(PID.TID 0000.0001)     15 .oonnnnmmnnnnnnmllk.
(PID.TID 0000.0001)     14 .ppppoooopppppppooo.
(PID.TID 0000.0001)     13 .qqqqqrrrrrrqqqqqq..
(PID.TID 0000.0001)     12 .tttttttttttssrqp...
(PID.TID 0000.0001)     11 .wwwwwwvvvvuusrpn...
(PID.TID 0000.0001)     10 .zzyyyyyxxwvusr.....
(PID.TID 0000.0001)      9 .++zzzzyxxwutr......
(PID.TID 0000.0001)      8 .+zzyyyxwvusrp......
(PID.TID 0000.0001)      7 .xxxxwwutsrpnm......
(PID.TID 0000.0001)      6 .uuuuutsqponlj......
(PID.TID 0000.0001)      5 .rrrrqqponmkji......
(PID.TID 0000.0001)      4 .poooonmmlkihg......
(PID.TID 0000.0001)      3 .mmlllllkjihec......
(PID.TID 0000.0001)      2 .jjjkkkjjihfd-......
(PID.TID 0000.0001)      1 ....................
(PID.TID 0000.0001) // =======================================================
(PID.TID 0000.0001) // END OF FIELD                                          =
(PID.TID 0000.0001) // =======================================================
(PID.TID 0000.0001) 
(PID.TID 0000.0001)  MDSREADFIELD: opening global file: kf_fu
(PID.TID 0000.0001)  MDSREADFIELD: opening global file: kf_fv
(PID.TID 0000.0001)  MDSREADFIELD: opening global file: kf_qnet
(PID.TID 0000.0001)  MDSREADFIELD: opening global file: kf_empmr
(PID.TID 0000.0001)  MDSREADFIELD: opening global file: kf_sst
(PID.TID 0000.0001)  MDSREADFIELD: opening global file: kf_sss
(PID.TID 0000.0001)  MDSREADFIELD: opening global file: kf_sw
(PID.TID 0000.0001) // =======================================================
(PID.TID 0000.0001) // Model current state
(PID.TID 0000.0001) // =======================================================
(PID.TID 0000.0001) 
(PID.TID 0000.0001) // =======================================================
(PID.TID 0000.0001) // Begin MONITOR dynamic field statistics
(PID.TID 0000.0001) // =======================================================
(PID.TID 0000.0001) %MON time_tsnumber                =                     0
(PID.TID 0000.0001) %MON time_secondsf                =   0.0000000000000E+00
(PID.TID 0000.0001) %MON time_secondsi                =                     0
(PID.TID 0000.0001) %MON dynstat_eta_max              =   0.0000000000000E+00
(PID.TID 0000.0001) %MON dynstat_eta_min              =   0.0000000000000E+00
(PID.TID 0000.0001) %MON dynstat_eta_mean             =   0.0000000000000E+00
(PID.TID 0000.0001) %MON dynstat_eta_sd               =   0.0000000000000E+00
(PID.TID 0000.0001) %MON dynstat_uvel_max             =   0.0000000000000E+00
(PID.TID 0000.0001) %MON dynstat_uvel_min             =   0.0000000000000E+00
(PID.TID 0000.0001) %MON dynstat_uvel_mean            =   0.0000000000000E+00
(PID.TID 0000.0001) %MON dynstat_uvel_sd              =   0.0000000000000E+00
(PID.TID 0000.0001) %MON dynstat_vvel_max             =   0.0000000000000E+00
(PID.TID 0000.0001) %MON dynstat_vvel_min             =   0.0000000000000E+00
(PID.TID 0000.0001) %MON dynstat_vvel_mean            =   0.0000000000000E+00
(PID.TID 0000.0001) %MON dynstat_vvel_sd              =   0.0000000000000E+00
(PID.TID 0000.0001) %MON dynstat_wvel_max             =   0.0000000000000E+00
(PID.TID 0000.0001) %MON dynstat_wvel_min             =   0.0000000000000E+00
(PID.TID 0000.0001) %MON dynstat_wvel_mean            =   0.0000000000000E+00
(PID.TID 0000.0001) %MON dynstat_wvel_sd              =   0.0000000000000E+00
(PID.TID 0000.0001) %MON dynstat_theta_max            =   2.6077934265137E+01
(PID.TID 0000.0001) %MON dynstat_theta_min            =   1.8064365386963E+00
(PID.TID 0000.0001) %MON dynstat_theta_mean           =   1.2442731729199E+01
(PID.TID 0000.0001) %MON dynstat_theta_sd             =   7.6450097635724E+00
(PID.TID 0000.0001) %MON dynstat_salt_max             =   3.7401638031006E+01
(PID.TID 0000.0001) %MON dynstat_salt_min             =   3.4726768493652E+01
(PID.TID 0000.0001) %MON dynstat_salt_mean            =   3.5764816359861E+01
(PID.TID 0000.0001) %MON dynstat_salt_sd              =   7.4188601259029E-01
(PID.TID 0000.0001) %MON advcfl_uvel_max              =   0.0000000000000E+00
(PID.TID 0000.0001) %MON advcfl_vvel_max              =   0.0000000000000E+00
(PID.TID 0000.0001) %MON advcfl_wvel_max              =   0.0000000000000E+00
(PID.TID 0000.0001) %MON advcfl_W_hf_max              =   0.0000000000000E+00
(PID.TID 0000.0001) %MON ke_max                       =   0.0000000000000E+00
(PID.TID 0000.0001) %MON ke_mean                      =   0.0000000000000E+00
(PID.TID 0000.0001) // =======================================================
(PID.TID 0000.0001) // End MONITOR dynamic field statistics
(PID.TID 0000.0001) // =======================================================
 S/R EXTERNAL_FIELDS_LOAD: Reading new data  0.0000000000000000E+00           0
(PID.TID 0000.0001)  MDSREADFIELD: opening global file: kf_fu
(PID.TID 0000.0001)  MDSREADFIELD: opening global file: kf_fu
(PID.TID 0000.0001)  MDSREADFIELD: opening global file: kf_fv
(PID.TID 0000.0001)  MDSREADFIELD: opening global file: kf_fv
(PID.TID 0000.0001)  MDSREADFIELD: opening global file: kf_qnet
(PID.TID 0000.0001)  MDSREADFIELD: opening global file: kf_qnet
(PID.TID 0000.0001)  MDSREADFIELD: opening global file: kf_empmr
(PID.TID 0000.0001)  MDSREADFIELD: opening global file: kf_empmr
(PID.TID 0000.0001)  MDSREADFIELD: opening global file: kf_sst
(PID.TID 0000.0001)  MDSREADFIELD: opening global file: kf_sst
(PID.TID 0000.0001)  MDSREADFIELD: opening global file: kf_sss
(PID.TID 0000.0001)  MDSREADFIELD: opening global file: kf_sss
(PID.TID 0000.0001)  MDSREADFIELD: opening global file: kf_sw
(PID.TID 0000.0001)  MDSREADFIELD: opening global file: kf_sw
 cg2d: Sum(rhs),rhsMax =  -1.68268177169750E-15  4.50737656360063E-01
(PID.TID 0000.0001)                    cg2d_init_res =    3.97960747080090E+00
(PID.TID 0000.0001)                       cg2d_iters =    50
(PID.TID 0000.0001)                         cg2d_res =    7.13208991450513E-14
(PID.TID 0000.0001) // =======================================================
(PID.TID 0000.0001) // Begin MONITOR dynamic field statistics
(PID.TID 0000.0001) // =======================================================
(PID.TID 0000.0001) %MON time_tsnumber                =                     1
(PID.TID 0000.0001) %MON time_secondsf                =   3.6000000000000E+03
(PID.TID 0000.0001) %MON time_secondsi                =                  3600
(PID.TID 0000.0001) %MON dynstat_eta_max              =   7.9831848646386E-02
(PID.TID 0000.0001) %MON dynstat_eta_min              =  -1.0327152670088E-01
(PID.TID 0000.0001) %MON dynstat_eta_mean             =  -2.9101321204745E-04
(PID.TID 0000.0001) %MON dynstat_eta_sd               =   3.4585291347769E-02
(PID.TID 0000.0001) %MON dynstat_uvel_max             =   5.3767310064959E-02
(PID.TID 0000.0001) %MON dynstat_uvel_min             =  -4.2462040507064E-02
(PID.TID 0000.0001) %MON dynstat_uvel_mean            =  -1.4536574653913E-03
(PID.TID 0000.0001) %MON dynstat_uvel_sd              =   4.0168959264599E-03
(PID.TID 0000.0001) %MON dynstat_vvel_max             =   1.0121846306820E-02
(PID.TID 0000.0001) %MON dynstat_vvel_min             =  -2.9296628090044E-02
(PID.TID 0000.0001) %MON dynstat_vvel_mean            =  -8.8975073885888E-04
(PID.TID 0000.0001) %MON dynstat_vvel_sd              =   3.5432523010725E-03
(PID.TID 0000.0001) %MON dynstat_wvel_max             =   0.0000000000000E+00
(PID.TID 0000.0001) %MON dynstat_wvel_min             =   0.0000000000000E+00
(PID.TID 0000.0001) %MON dynstat_wvel_mean            =   0.0000000000000E+00
(PID.TID 0000.0001) %MON dynstat_wvel_sd              =   0.0000000000000E+00
(PID.TID 0000.0001) %MON dynstat_theta_max            =   2.6076654047948E+01
(PID.TID 0000.0001) %MON dynstat_theta_min            =   1.8064390104771E+00
(PID.TID 0000.0001) %MON dynstat_theta_mean           =   1.2443053821060E+01
(PID.TID 0000.0001) %MON dynstat_theta_sd             =   7.6453868646985E+00
(PID.TID 0000.0001) %MON dynstat_salt_max             =   3.7400751159650E+01
(PID.TID 0000.0001) %MON dynstat_salt_min             =   3.4726771995658E+01
(PID.TID 0000.0001) %MON dynstat_salt_mean            =   3.5764840292404E+01
(PID.TID 0000.0001) %MON dynstat_salt_sd              =   7.4190468897940E-01
(PID.TID 0000.0001) %MON advcfl_uvel_max              =   1.1201377154061E-03
(PID.TID 0000.0001) %MON advcfl_vvel_max              =   4.7432208137254E-04
(PID.TID 0000.0001) %MON advcfl_wvel_max              =   0.0000000000000E+00
(PID.TID 0000.0001) %MON advcfl_W_hf_max              =   0.0000000000000E+00
(PID.TID 0000.0001) %MON ke_max                       =   9.5687170772800E-04
(PID.TID 0000.0001) %MON ke_mean                      =   1.4363503643925E-05
(PID.TID 0000.0001) // =======================================================
(PID.TID 0000.0001) // End MONITOR dynamic field statistics
(PID.TID 0000.0001) // =======================================================
 cg2d: Sum(rhs),rhsMax =   2.39391839684799E-15  5.55580894999373E-01
(PID.TID 0000.0001)                    cg2d_init_res =    9.18792760416721E-01
(PID.TID 0000.0001)                       cg2d_iters =    47
(PID.TID 0000.0001)                         cg2d_res =    7.05573647761783E-14
(PID.TID 0000.0001) // =======================================================
(PID.TID 0000.0001) // Begin MONITOR dynamic field statistics
(PID.TID 0000.0001) // =======================================================
(PID.TID 0000.0001) %MON time_tsnumber                =                     2
(PID.TID 0000.0001) %MON time_secondsf                =   7.2000000000000E+03
(PID.TID 0000.0001) %MON time_secondsi                =                  7200
(PID.TID 0000.0001) %MON dynstat_eta_max              =   1.4747680131358E-01
(PID.TID 0000.0001) %MON dynstat_eta_min              =  -1.8208426967047E-01
(PID.TID 0000.0001) %MON dynstat_eta_mean             =  -6.1236757041075E-04
(PID.TID 0000.0001) %MON dynstat_eta_sd               =   6.8213817870576E-02
(PID.TID 0000.0001) %MON dynstat_uvel_max             =   1.0408433363868E-01
(PID.TID 0000.0001) %MON dynstat_uvel_min             =  -7.3099133362761E-02
(PID.TID 0000.0001) %MON dynstat_uvel_mean            =  -1.7279856127535E-03
(PID.TID 0000.0001) %MON dynstat_uvel_sd              =   7.7589508456870E-03
(PID.TID 0000.0001) %MON dynstat_vvel_max             =   2.1344598042838E-02
(PID.TID 0000.0001) %MON dynstat_vvel_min             =  -5.3407811787397E-02
(PID.TID 0000.0001) %MON dynstat_vvel_mean            =  -1.7017176398998E-03
(PID.TID 0000.0001) %MON dynstat_vvel_sd              =   6.8213125492754E-03
(PID.TID 0000.0001) %MON dynstat_wvel_max             =   4.7438450209691E-05
(PID.TID 0000.0001) %MON dynstat_wvel_min             =  -9.2458472497102E-05
(PID.TID 0000.0001) %MON dynstat_wvel_mean            =  -4.6026158563797E-08
(PID.TID 0000.0001) %MON dynstat_wvel_sd              =   1.1878813405816E-05
(PID.TID 0000.0001) %MON dynstat_theta_max            =   2.6075142164004E+01
(PID.TID 0000.0001) %MON dynstat_theta_min            =   1.8064390241864E+00
(PID.TID 0000.0001) %MON dynstat_theta_mean           =   1.2443436874001E+01
(PID.TID 0000.0001) %MON dynstat_theta_sd             =   7.6457499209924E+00
(PID.TID 0000.0001) %MON dynstat_salt_max             =   3.7400673032964E+01
(PID.TID 0000.0001) %MON dynstat_salt_min             =   3.4726779359477E+01
(PID.TID 0000.0001) %MON dynstat_salt_mean            =   3.5764860701185E+01
(PID.TID 0000.0001) %MON dynstat_salt_sd              =   7.4191047125589E-01
(PID.TID 0000.0001) %MON advcfl_uvel_max              =   2.1683953977006E-03
(PID.TID 0000.0001) %MON advcfl_vvel_max              =   8.6469010599756E-04
(PID.TID 0000.0001) %MON advcfl_wvel_max              =   2.0654305340175E-02
(PID.TID 0000.0001) %MON advcfl_W_hf_max              =   2.0528089814589E-02
(PID.TID 0000.0001) %MON ke_max                       =   3.1033625748990E-03
(PID.TID 0000.0001) %MON ke_mean                      =   5.1175229602650E-05
(PID.TID 0000.0001) // =======================================================
(PID.TID 0000.0001) // End MONITOR dynamic field statistics
(PID.TID 0000.0001) // =======================================================
 cg2d: Sum(rhs),rhsMax =   1.08246744900953E-15  5.83480922429689E-01
(PID.TID 0000.0001)                    cg2d_init_res =    5.49843674776898E-01
(PID.TID 0000.0001)                       cg2d_iters =    46
(PID.TID 0000.0001)                         cg2d_res =    7.64355147307249E-14
(PID.TID 0000.0001) // =======================================================
(PID.TID 0000.0001) // Begin MONITOR dynamic field statistics
(PID.TID 0000.0001) // =======================================================
(PID.TID 0000.0001) %MON time_tsnumber                =                     3
(PID.TID 0000.0001) %MON time_secondsf                =   1.0800000000000E+04
(PID.TID 0000.0001) %MON time_secondsi                =                 10800
(PID.TID 0000.0001) %MON dynstat_eta_max              =   1.8595228854128E-01
(PID.TID 0000.0001) %MON dynstat_eta_min              =  -2.3829516680980E-01
(PID.TID 0000.0001) %MON dynstat_eta_mean             =  -1.0877698402163E-03
(PID.TID 0000.0001) %MON dynstat_eta_sd               =   9.2911668870914E-02
(PID.TID 0000.0001) %MON dynstat_uvel_max             =   1.4697163833358E-01
(PID.TID 0000.0001) %MON dynstat_uvel_min             =  -9.6705453944449E-02
(PID.TID 0000.0001) %MON dynstat_uvel_mean            =  -1.1892352506000E-03
(PID.TID 0000.0001) %MON dynstat_uvel_sd              =   1.1233746902055E-02
(PID.TID 0000.0001) %MON dynstat_vvel_max             =   3.1359585191706E-02
(PID.TID 0000.0001) %MON dynstat_vvel_min             =  -7.2709701159882E-02
(PID.TID 0000.0001) %MON dynstat_vvel_mean            =  -2.7149204620216E-03
(PID.TID 0000.0001) %MON dynstat_vvel_sd              =   9.5320302388976E-03
(PID.TID 0000.0001) %MON dynstat_wvel_max             =   7.5984121261977E-05
(PID.TID 0000.0001) %MON dynstat_wvel_min             =  -1.4301003071029E-04
(PID.TID 0000.0001) %MON dynstat_wvel_mean            =  -3.7955709986001E-08
(PID.TID 0000.0001) %MON dynstat_wvel_sd              =   1.6095601137931E-05
(PID.TID 0000.0001) %MON dynstat_theta_max            =   2.6073527662875E+01
(PID.TID 0000.0001) %MON dynstat_theta_min            =   1.8064395683377E+00
(PID.TID 0000.0001) %MON dynstat_theta_mean           =   1.2443773026879E+01
(PID.TID 0000.0001) %MON dynstat_theta_sd             =   7.6460759107717E+00
(PID.TID 0000.0001) %MON dynstat_salt_max             =   3.7400692070083E+01
(PID.TID 0000.0001) %MON dynstat_salt_min             =   3.4726785376275E+01
(PID.TID 0000.0001) %MON dynstat_salt_mean            =   3.5764885666154E+01
(PID.TID 0000.0001) %MON dynstat_salt_sd              =   7.4192453899677E-01
(PID.TID 0000.0001) %MON advcfl_uvel_max              =   3.0618692843954E-03
(PID.TID 0000.0001) %MON advcfl_vvel_max              =   1.1771940676631E-03
(PID.TID 0000.0001) %MON advcfl_wvel_max              =   1.6837673865373E-02
(PID.TID 0000.0001) %MON advcfl_W_hf_max              =   2.0933154589731E-02
(PID.TID 0000.0001) %MON ke_max                       =   6.2722590879687E-03
(PID.TID 0000.0001) %MON ke_mean                      =   1.0263977104424E-04
(PID.TID 0000.0001) // =======================================================
(PID.TID 0000.0001) // End MONITOR dynamic field statistics
(PID.TID 0000.0001) // =======================================================
 cg2d: Sum(rhs),rhsMax =  -3.88578058618805E-16  6.07089383270205E-01
(PID.TID 0000.0001)                    cg2d_init_res =    2.97163864711447E-01
(PID.TID 0000.0001)                       cg2d_iters =    47
(PID.TID 0000.0001)                         cg2d_res =    5.03565181098555E-14
(PID.TID 0000.0001) // =======================================================
(PID.TID 0000.0001) // Begin MONITOR dynamic field statistics
(PID.TID 0000.0001) // =======================================================
(PID.TID 0000.0001) %MON time_tsnumber                =                     4
(PID.TID 0000.0001) %MON time_secondsf                =   1.4400000000000E+04
(PID.TID 0000.0001) %MON time_secondsi                =                 14400
(PID.TID 0000.0001) %MON dynstat_eta_max              =   1.9627230979925E-01
(PID.TID 0000.0001) %MON dynstat_eta_min              =  -2.7139002269904E-01
(PID.TID 0000.0001) %MON dynstat_eta_mean             =  -1.7777776803180E-03
(PID.TID 0000.0001) %MON dynstat_eta_sd               =   1.0521905876100E-01
(PID.TID 0000.0001) %MON dynstat_uvel_max             =   1.7730273911558E-01
(PID.TID 0000.0001) %MON dynstat_uvel_min             =  -1.1582955932202E-01
(PID.TID 0000.0001) %MON dynstat_uvel_mean            =  -4.4233532430383E-04
(PID.TID 0000.0001) %MON dynstat_uvel_sd              =   1.4523708239287E-02
(PID.TID 0000.0001) %MON dynstat_vvel_max             =   3.9315084197167E-02
(PID.TID 0000.0001) %MON dynstat_vvel_min             =  -9.0546459781943E-02
(PID.TID 0000.0001) %MON dynstat_vvel_mean            =  -3.8230775775322E-03
(PID.TID 0000.0001) %MON dynstat_vvel_sd              =   1.1611263640799E-02
(PID.TID 0000.0001) %MON dynstat_wvel_max             =   9.8737538775470E-05
(PID.TID 0000.0001) %MON dynstat_wvel_min             =  -1.7306547523235E-04
(PID.TID 0000.0001) %MON dynstat_wvel_mean            =  -5.2644438351268E-08
(PID.TID 0000.0001) %MON dynstat_wvel_sd              =   1.9264127521470E-05
(PID.TID 0000.0001) %MON dynstat_theta_max            =   2.6071812801866E+01
(PID.TID 0000.0001) %MON dynstat_theta_min            =   1.8064406152496E+00
(PID.TID 0000.0001) %MON dynstat_theta_mean           =   1.2444066241498E+01
(PID.TID 0000.0001) %MON dynstat_theta_sd             =   7.6463694390838E+00
(PID.TID 0000.0001) %MON dynstat_salt_max             =   3.7400960444954E+01
(PID.TID 0000.0001) %MON dynstat_salt_min             =   3.4726790540921E+01
(PID.TID 0000.0001) %MON dynstat_salt_mean            =   3.5764915056773E+01
(PID.TID 0000.0001) %MON dynstat_salt_sd              =   7.4194663449126E-01
(PID.TID 0000.0001) %MON advcfl_uvel_max              =   3.6937589938612E-03
(PID.TID 0000.0001) %MON advcfl_vvel_max              =   1.4659770787506E-03
(PID.TID 0000.0001) %MON advcfl_wvel_max              =   1.4131636006757E-02
(PID.TID 0000.0001) %MON advcfl_W_hf_max              =   1.9921367516805E-02
(PID.TID 0000.0001) %MON ke_max                       =   9.3180678959827E-03
(PID.TID 0000.0001) %MON ke_mean                      =   1.6395287524966E-04
(PID.TID 0000.0001) // =======================================================
(PID.TID 0000.0001) // End MONITOR dynamic field statistics
(PID.TID 0000.0001) // =======================================================
 cg2d: Sum(rhs),rhsMax =   1.27675647831893E-15  6.21143979819597E-01
(PID.TID 0000.0001)                    cg2d_init_res =    2.45540795461480E-01
(PID.TID 0000.0001)                       cg2d_iters =    47
(PID.TID 0000.0001)                         cg2d_res =    3.93200535093409E-14
(PID.TID 0000.0001) // =======================================================
(PID.TID 0000.0001) // Begin MONITOR dynamic field statistics
(PID.TID 0000.0001) // =======================================================
(PID.TID 0000.0001) %MON time_tsnumber                =                     5
(PID.TID 0000.0001) %MON time_secondsf                =   1.8000000000000E+04
(PID.TID 0000.0001) %MON time_secondsi                =                 18000
(PID.TID 0000.0001) %MON dynstat_eta_max              =   1.8812326783072E-01
(PID.TID 0000.0001) %MON dynstat_eta_min              =  -2.8341184534026E-01
(PID.TID 0000.0001) %MON dynstat_eta_mean             =  -2.5639939334919E-03
(PID.TID 0000.0001) %MON dynstat_eta_sd               =   1.0696322985798E-01
(PID.TID 0000.0001) %MON dynstat_uvel_max             =   1.7905999660982E-01
(PID.TID 0000.0001) %MON dynstat_uvel_min             =  -1.3243692571738E-01
(PID.TID 0000.0001) %MON dynstat_uvel_mean            =   3.2096205258574E-05
(PID.TID 0000.0001) %MON dynstat_uvel_sd              =   1.7559633289263E-02
(PID.TID 0000.0001) %MON dynstat_vvel_max             =   4.4824282891563E-02
(PID.TID 0000.0001) %MON dynstat_vvel_min             =  -1.0866419348198E-01
(PID.TID 0000.0001) %MON dynstat_vvel_mean            =  -4.8127346008029E-03
(PID.TID 0000.0001) %MON dynstat_vvel_sd              =   1.3099337155437E-02
(PID.TID 0000.0001) %MON dynstat_wvel_max             =   1.1374309560970E-04
(PID.TID 0000.0001) %MON dynstat_wvel_min             =  -1.8464100019425E-04
(PID.TID 0000.0001) %MON dynstat_wvel_mean            =  -7.4843395641477E-08
(PID.TID 0000.0001) %MON dynstat_wvel_sd              =   2.2086840914365E-05
(PID.TID 0000.0001) %MON dynstat_theta_max            =   2.6070067566348E+01
(PID.TID 0000.0001) %MON dynstat_theta_min            =   1.8064422271982E+00
(PID.TID 0000.0001) %MON dynstat_theta_mean           =   1.2444330277797E+01
(PID.TID 0000.0001) %MON dynstat_theta_sd             =   7.6466422146738E+00
(PID.TID 0000.0001) %MON dynstat_salt_max             =   3.7401224064699E+01
(PID.TID 0000.0001) %MON dynstat_salt_min             =   3.4726794346571E+01
(PID.TID 0000.0001) %MON dynstat_salt_mean            =   3.5764947556290E+01
(PID.TID 0000.0001) %MON dynstat_salt_sd              =   7.4197270271040E-01
(PID.TID 0000.0001) %MON advcfl_uvel_max              =   3.7303680485563E-03
(PID.TID 0000.0001) %MON advcfl_vvel_max              =   1.7593091691175E-03
(PID.TID 0000.0001) %MON advcfl_wvel_max              =   8.8164549551867E-03
(PID.TID 0000.0001) %MON advcfl_W_hf_max              =   1.4095940389507E-02
(PID.TID 0000.0001) %MON ke_max                       =   9.9911990569186E-03
(PID.TID 0000.0001) %MON ke_mean                      =   2.2891183193586E-04
(PID.TID 0000.0001) // =======================================================
(PID.TID 0000.0001) // End MONITOR dynamic field statistics
(PID.TID 0000.0001) // =======================================================
 cg2d: Sum(rhs),rhsMax =   8.96505092384814E-15  6.21676459180399E-01
(PID.TID 0000.0001)                    cg2d_init_res =    2.81016270496456E-01
(PID.TID 0000.0001)                       cg2d_iters =    47
(PID.TID 0000.0001)                         cg2d_res =    4.15711300514305E-14
(PID.TID 0000.0001) // =======================================================
(PID.TID 0000.0001) // Begin MONITOR dynamic field statistics
(PID.TID 0000.0001) // =======================================================
(PID.TID 0000.0001) %MON time_tsnumber                =                     6
(PID.TID 0000.0001) %MON time_secondsf                =   2.1600000000000E+04
(PID.TID 0000.0001) %MON time_secondsi                =                 21600
(PID.TID 0000.0001) %MON dynstat_eta_max              =   1.8435079377064E-01
(PID.TID 0000.0001) %MON dynstat_eta_min              =  -2.7975744250086E-01
(PID.TID 0000.0001) %MON dynstat_eta_mean             =  -3.2359822556240E-03
(PID.TID 0000.0001) %MON dynstat_eta_sd               =   1.0263013499225E-01
(PID.TID 0000.0001) %MON dynstat_uvel_max             =   1.6536914589969E-01
(PID.TID 0000.0001) %MON dynstat_uvel_min             =  -1.4727343741737E-01
(PID.TID 0000.0001) %MON dynstat_uvel_mean            =  -3.9647726329010E-06
(PID.TID 0000.0001) %MON dynstat_uvel_sd              =   2.0332992688697E-02
(PID.TID 0000.0001) %MON dynstat_vvel_max             =   4.7608995309673E-02
(PID.TID 0000.0001) %MON dynstat_vvel_min             =  -1.2111555430694E-01
(PID.TID 0000.0001) %MON dynstat_vvel_mean            =  -5.5413757793371E-03
(PID.TID 0000.0001) %MON dynstat_vvel_sd              =   1.4084901141308E-02
(PID.TID 0000.0001) %MON dynstat_wvel_max             =   1.2005647251181E-04
(PID.TID 0000.0001) %MON dynstat_wvel_min             =  -1.7855357409111E-04
(PID.TID 0000.0001) %MON dynstat_wvel_mean            =  -6.7548090372044E-08
(PID.TID 0000.0001) %MON dynstat_wvel_sd              =   2.4353494524419E-05
(PID.TID 0000.0001) %MON dynstat_theta_max            =   2.6075021814904E+01
(PID.TID 0000.0001) %MON dynstat_theta_min            =   1.8064442715262E+00
(PID.TID 0000.0001) %MON dynstat_theta_mean           =   1.2444580516910E+01
(PID.TID 0000.0001) %MON dynstat_theta_sd             =   7.6469090283632E+00
(PID.TID 0000.0001) %MON dynstat_salt_max             =   3.7401486053219E+01
(PID.TID 0000.0001) %MON dynstat_salt_min             =   3.4726796682486E+01
(PID.TID 0000.0001) %MON dynstat_salt_mean            =   3.5764981770429E+01
(PID.TID 0000.0001) %MON dynstat_salt_sd              =   7.4200042290026E-01
(PID.TID 0000.0001) %MON advcfl_uvel_max              =   3.4451457040149E-03
(PID.TID 0000.0001) %MON advcfl_vvel_max              =   1.9609008118234E-03
(PID.TID 0000.0001) %MON advcfl_wvel_max              =   4.3018589431253E-03
(PID.TID 0000.0001) %MON advcfl_W_hf_max              =   7.5077958000015E-03
(PID.TID 0000.0001) %MON ke_max                       =   1.0809063822835E-02
(PID.TID 0000.0001) %MON ke_mean                      =   2.9256816864661E-04
(PID.TID 0000.0001) // =======================================================
(PID.TID 0000.0001) // End MONITOR dynamic field statistics
(PID.TID 0000.0001) // =======================================================
 cg2d: Sum(rhs),rhsMax =   1.05609965217468E-14  6.11135932469700E-01
(PID.TID 0000.0001)                    cg2d_init_res =    2.63091072372183E-01
(PID.TID 0000.0001)                       cg2d_iters =    47
(PID.TID 0000.0001)                         cg2d_res =    4.30519676293840E-14
(PID.TID 0000.0001) // =======================================================
(PID.TID 0000.0001) // Begin MONITOR dynamic field statistics
(PID.TID 0000.0001) // =======================================================
(PID.TID 0000.0001) %MON time_tsnumber                =                     7
(PID.TID 0000.0001) %MON time_secondsf                =   2.5200000000000E+04
(PID.TID 0000.0001) %MON time_secondsi                =                 25200
(PID.TID 0000.0001) %MON dynstat_eta_max              =   1.7621675559424E-01
(PID.TID 0000.0001) %MON dynstat_eta_min              =  -2.6854247084792E-01
(PID.TID 0000.0001) %MON dynstat_eta_mean             =  -3.6174366183636E-03
(PID.TID 0000.0001) %MON dynstat_eta_sd               =   9.5924278198168E-02
(PID.TID 0000.0001) %MON dynstat_uvel_max             =   1.4579491192776E-01
(PID.TID 0000.0001) %MON dynstat_uvel_min             =  -1.6053841870766E-01
(PID.TID 0000.0001) %MON dynstat_uvel_mean            =  -5.6987001770813E-04
(PID.TID 0000.0001) %MON dynstat_uvel_sd              =   2.2788450700998E-02
(PID.TID 0000.0001) %MON dynstat_vvel_max             =   4.9447726899502E-02
(PID.TID 0000.0001) %MON dynstat_vvel_min             =  -1.2700698164911E-01
(PID.TID 0000.0001) %MON dynstat_vvel_mean            =  -5.9823374350860E-03
(PID.TID 0000.0001) %MON dynstat_vvel_sd              =   1.4678600373135E-02
(PID.TID 0000.0001) %MON dynstat_wvel_max             =   1.3288966884354E-04
(PID.TID 0000.0001) %MON dynstat_wvel_min             =  -1.5753918398231E-04
(PID.TID 0000.0001) %MON dynstat_wvel_mean            =  -1.3586758298499E-08
(PID.TID 0000.0001) %MON dynstat_wvel_sd              =   2.5681523387328E-05
(PID.TID 0000.0001) %MON dynstat_theta_max            =   2.6081689357329E+01
(PID.TID 0000.0001) %MON dynstat_theta_min            =   1.8064465123701E+00
(PID.TID 0000.0001) %MON dynstat_theta_mean           =   1.2444830643978E+01
(PID.TID 0000.0001) %MON dynstat_theta_sd             =   7.6471828854905E+00
(PID.TID 0000.0001) %MON dynstat_salt_max             =   3.7401749861162E+01
(PID.TID 0000.0001) %MON dynstat_salt_min             =   3.4726797966194E+01
(PID.TID 0000.0001) %MON dynstat_salt_mean            =   3.5765016142482E+01
(PID.TID 0000.0001) %MON dynstat_salt_sd              =   7.4202818267252E-01
(PID.TID 0000.0001) %MON advcfl_uvel_max              =   3.0373544699797E-03
(PID.TID 0000.0001) %MON advcfl_vvel_max              =   2.0562849656109E-03
(PID.TID 0000.0001) %MON advcfl_wvel_max              =   6.3534511778499E-03
(PID.TID 0000.0001) %MON advcfl_W_hf_max              =   8.2818775951622E-03
(PID.TID 0000.0001) %MON ke_max                       =   1.2825165154959E-02
(PID.TID 0000.0001) %MON ke_mean                      =   3.5127988567193E-04
(PID.TID 0000.0001) // =======================================================
(PID.TID 0000.0001) // End MONITOR dynamic field statistics
(PID.TID 0000.0001) // =======================================================
 cg2d: Sum(rhs),rhsMax =   1.09079412169422E-14  5.94932675701715E-01
(PID.TID 0000.0001)                    cg2d_init_res =    2.04039840902727E-01
(PID.TID 0000.0001)                       cg2d_iters =    47
(PID.TID 0000.0001)                         cg2d_res =    3.87188806472804E-14
(PID.TID 0000.0001) // =======================================================
(PID.TID 0000.0001) // Begin MONITOR dynamic field statistics
(PID.TID 0000.0001) // =======================================================
(PID.TID 0000.0001) %MON time_tsnumber                =                     8
(PID.TID 0000.0001) %MON time_secondsf                =   2.8800000000000E+04
(PID.TID 0000.0001) %MON time_secondsi                =                 28800
(PID.TID 0000.0001) %MON dynstat_eta_max              =   1.6654868274184E-01
(PID.TID 0000.0001) %MON dynstat_eta_min              =  -2.5257947952336E-01
(PID.TID 0000.0001) %MON dynstat_eta_mean             =  -3.6444935303662E-03
(PID.TID 0000.0001) %MON dynstat_eta_sd               =   8.8675663970154E-02
(PID.TID 0000.0001) %MON dynstat_uvel_max             =   1.2081176160518E-01
(PID.TID 0000.0001) %MON dynstat_uvel_min             =  -1.7216924535635E-01
(PID.TID 0000.0001) %MON dynstat_uvel_mean            =  -1.5505098465321E-03
(PID.TID 0000.0001) %MON dynstat_uvel_sd              =   2.4833687809810E-02
(PID.TID 0000.0001) %MON dynstat_vvel_max             =   5.2726637311105E-02
(PID.TID 0000.0001) %MON dynstat_vvel_min             =  -1.2620466039174E-01
(PID.TID 0000.0001) %MON dynstat_vvel_mean            =  -6.1903115901262E-03
(PID.TID 0000.0001) %MON dynstat_vvel_sd              =   1.4993127600160E-02
(PID.TID 0000.0001) %MON dynstat_wvel_max             =   1.3827799343400E-04
(PID.TID 0000.0001) %MON dynstat_wvel_min             =  -1.5784456836668E-04
(PID.TID 0000.0001) %MON dynstat_wvel_mean            =   7.6834180741618E-08
(PID.TID 0000.0001) %MON dynstat_wvel_sd              =   2.5982974674279E-05
(PID.TID 0000.0001) %MON dynstat_theta_max            =   2.6088410868574E+01
(PID.TID 0000.0001) %MON dynstat_theta_min            =   1.8064487561209E+00
(PID.TID 0000.0001) %MON dynstat_theta_mean           =   1.2445089003354E+01
(PID.TID 0000.0001) %MON dynstat_theta_sd             =   7.6474703295159E+00
(PID.TID 0000.0001) %MON dynstat_salt_max             =   3.7402020372335E+01
(PID.TID 0000.0001) %MON dynstat_salt_min             =   3.4726798685854E+01
(PID.TID 0000.0001) %MON dynstat_salt_mean            =   3.5765049760059E+01
(PID.TID 0000.0001) %MON dynstat_salt_sd              =   7.4205511580429E-01
(PID.TID 0000.0001) %MON advcfl_uvel_max              =   2.8858084647596E-03
(PID.TID 0000.0001) %MON advcfl_vvel_max              =   2.0432951195591E-03
(PID.TID 0000.0001) %MON advcfl_wvel_max              =   6.3626756317518E-03
(PID.TID 0000.0001) %MON advcfl_W_hf_max              =   1.0476342225873E-02
(PID.TID 0000.0001) %MON ke_max                       =   1.4783485248914E-02
(PID.TID 0000.0001) %MON ke_mean                      =   4.0228656704394E-04
(PID.TID 0000.0001) // =======================================================
(PID.TID 0000.0001) // End MONITOR dynamic field statistics
(PID.TID 0000.0001) // =======================================================
 cg2d: Sum(rhs),rhsMax =   1.51129109227099E-14  5.77956523934264E-01
(PID.TID 0000.0001)                    cg2d_init_res =    1.56306336124515E-01
(PID.TID 0000.0001)                       cg2d_iters =    46
(PID.TID 0000.0001)                         cg2d_res =    6.18811009866496E-14
(PID.TID 0000.0001) // =======================================================
(PID.TID 0000.0001) // Begin MONITOR dynamic field statistics
(PID.TID 0000.0001) // =======================================================
(PID.TID 0000.0001) %MON time_tsnumber                =                     9
(PID.TID 0000.0001) %MON time_secondsf                =   3.2400000000000E+04
(PID.TID 0000.0001) %MON time_secondsi                =                 32400
(PID.TID 0000.0001) %MON dynstat_eta_max              =   1.5757371759268E-01
(PID.TID 0000.0001) %MON dynstat_eta_min              =  -2.3627632226438E-01
(PID.TID 0000.0001) %MON dynstat_eta_mean             =  -3.3749097215241E-03
(PID.TID 0000.0001) %MON dynstat_eta_sd               =   8.1844700311934E-02
(PID.TID 0000.0001) %MON dynstat_uvel_max             =   9.4734069245384E-02
(PID.TID 0000.0001) %MON dynstat_uvel_min             =  -1.8182140260484E-01
(PID.TID 0000.0001) %MON dynstat_uvel_mean            =  -2.7873588150882E-03
(PID.TID 0000.0001) %MON dynstat_uvel_sd              =   2.6436471721190E-02
(PID.TID 0000.0001) %MON dynstat_vvel_max             =   6.1597844325569E-02
(PID.TID 0000.0001) %MON dynstat_vvel_min             =  -1.2372315318265E-01
(PID.TID 0000.0001) %MON dynstat_vvel_mean            =  -6.2388430663001E-03
(PID.TID 0000.0001) %MON dynstat_vvel_sd              =   1.5153183313181E-02
(PID.TID 0000.0001) %MON dynstat_wvel_max             =   1.3877310707543E-04
(PID.TID 0000.0001) %MON dynstat_wvel_min             =  -1.6481709269856E-04
(PID.TID 0000.0001) %MON dynstat_wvel_mean            =   1.7675834743150E-07
(PID.TID 0000.0001) %MON dynstat_wvel_sd              =   2.5511620615270E-05
(PID.TID 0000.0001) %MON dynstat_theta_max            =   2.6095218437485E+01
(PID.TID 0000.0001) %MON dynstat_theta_min            =   1.8064508967732E+00
(PID.TID 0000.0001) %MON dynstat_theta_mean           =   1.2445356699261E+01
(PID.TID 0000.0001) %MON dynstat_theta_sd             =   7.6477701574480E+00
(PID.TID 0000.0001) %MON dynstat_salt_max             =   3.7402302818938E+01
(PID.TID 0000.0001) %MON dynstat_salt_min             =   3.4726799229148E+01
(PID.TID 0000.0001) %MON dynstat_salt_mean            =   3.5765081604539E+01
(PID.TID 0000.0001) %MON dynstat_salt_sd              =   7.4207999114878E-01
(PID.TID 0000.0001) %MON advcfl_uvel_max              =   3.0475927429751E-03
(PID.TID 0000.0001) %MON advcfl_vvel_max              =   2.0031186985478E-03
(PID.TID 0000.0001) %MON advcfl_wvel_max              =   5.5790405883432E-03
(PID.TID 0000.0001) %MON advcfl_W_hf_max              =   1.1158081176686E-02
(PID.TID 0000.0001) %MON ke_max                       =   1.6584907643372E-02
(PID.TID 0000.0001) %MON ke_mean                      =   4.4492572668383E-04
(PID.TID 0000.0001) // =======================================================
(PID.TID 0000.0001) // End MONITOR dynamic field statistics
(PID.TID 0000.0001) // =======================================================
 cg2d: Sum(rhs),rhsMax =   1.88044024795886E-14  5.63257298808945E-01
(PID.TID 0000.0001)                    cg2d_init_res =    1.44645358146592E-01
(PID.TID 0000.0001)                       cg2d_iters =    46
(PID.TID 0000.0001)                         cg2d_res =    8.83095391826982E-14
(PID.TID 0000.0001) // =======================================================
(PID.TID 0000.0001) // Begin MONITOR dynamic field statistics
(PID.TID 0000.0001) // =======================================================
(PID.TID 0000.0001) %MON time_tsnumber                =                    10
(PID.TID 0000.0001) %MON time_secondsf                =   3.6000000000000E+04
(PID.TID 0000.0001) %MON time_secondsi                =                 36000
(PID.TID 0000.0001) %MON dynstat_eta_max              =   1.5079362990321E-01
(PID.TID 0000.0001) %MON dynstat_eta_min              =  -2.2243263107169E-01
(PID.TID 0000.0001) %MON dynstat_eta_mean             =  -2.9459033467754E-03
(PID.TID 0000.0001) %MON dynstat_eta_sd               =   7.6429322697790E-02
(PID.TID 0000.0001) %MON dynstat_uvel_max             =   6.9217365809698E-02
(PID.TID 0000.0001) %MON dynstat_uvel_min             =  -1.9159270223758E-01
(PID.TID 0000.0001) %MON dynstat_uvel_mean            =  -4.1343284043901E-03
(PID.TID 0000.0001) %MON dynstat_uvel_sd              =   2.7630600384870E-02
(PID.TID 0000.0001) %MON dynstat_vvel_max             =   6.8874088934451E-02
(PID.TID 0000.0001) %MON dynstat_vvel_min             =  -1.2587604963344E-01
(PID.TID 0000.0001) %MON dynstat_vvel_mean            =  -6.1719559960186E-03
(PID.TID 0000.0001) %MON dynstat_vvel_sd              =   1.5281236605351E-02
(PID.TID 0000.0001) %MON dynstat_wvel_max             =   1.4562806528100E-04
(PID.TID 0000.0001) %MON dynstat_wvel_min             =  -1.6669426958672E-04
(PID.TID 0000.0001) %MON dynstat_wvel_mean            =   2.5760037509616E-07
(PID.TID 0000.0001) %MON dynstat_wvel_sd              =   2.4640851983517E-05
(PID.TID 0000.0001) %MON dynstat_theta_max            =   2.6102081645508E+01
(PID.TID 0000.0001) %MON dynstat_theta_min            =   1.8064529061829E+00
(PID.TID 0000.0001) %MON dynstat_theta_mean           =   1.2445628702856E+01
(PID.TID 0000.0001) %MON dynstat_theta_sd             =   7.6480759020145E+00
(PID.TID 0000.0001) %MON dynstat_salt_max             =   3.7402601296916E+01
(PID.TID 0000.0001) %MON dynstat_salt_min             =   3.4726799930613E+01
(PID.TID 0000.0001) %MON dynstat_salt_mean            =   3.5765110750528E+01
(PID.TID 0000.0001) %MON dynstat_salt_sd              =   7.4210222267527E-01
(PID.TID 0000.0001) %MON advcfl_uvel_max              =   3.2436826087726E-03
(PID.TID 0000.0001) %MON advcfl_vvel_max              =   2.0379748028879E-03
(PID.TID 0000.0001) %MON advcfl_wvel_max              =   5.4010865810535E-03
(PID.TID 0000.0001) %MON advcfl_W_hf_max              =   1.0802173162107E-02
(PID.TID 0000.0001) %MON ke_max                       =   1.8088565396080E-02
(PID.TID 0000.0001) %MON ke_mean                      =   4.8023547143330E-04
(PID.TID 0000.0001) // =======================================================
(PID.TID 0000.0001) // End MONITOR dynamic field statistics
(PID.TID 0000.0001) // =======================================================
 cg2d: Sum(rhs),rhsMax =   2.18332296686441E-14  5.52256121982657E-01
(PID.TID 0000.0001)                    cg2d_init_res =    1.38278671964282E-01
(PID.TID 0000.0001)                       cg2d_iters =    45
(PID.TID 0000.0001)                         cg2d_res =    7.06999490510588E-14
(PID.TID 0000.0001) // =======================================================
(PID.TID 0000.0001) // Begin MONITOR dynamic field statistics
(PID.TID 0000.0001) // =======================================================
(PID.TID 0000.0001) %MON time_tsnumber                =                    11
(PID.TID 0000.0001) %MON time_secondsf                =   3.9600000000000E+04
(PID.TID 0000.0001) %MON time_secondsi                =                 39600
(PID.TID 0000.0001) %MON dynstat_eta_max              =   1.4688217907806E-01
(PID.TID 0000.0001) %MON dynstat_eta_min              =  -2.1251800210961E-01
(PID.TID 0000.0001) %MON dynstat_eta_mean             =  -2.5123638613558E-03
(PID.TID 0000.0001) %MON dynstat_eta_sd               =   7.3230221323210E-02
(PID.TID 0000.0001) %MON dynstat_uvel_max             =   4.8753841001377E-02
(PID.TID 0000.0001) %MON dynstat_uvel_min             =  -2.0225756476560E-01
(PID.TID 0000.0001) %MON dynstat_uvel_mean            =  -5.4721143590456E-03
(PID.TID 0000.0001) %MON dynstat_uvel_sd              =   2.8421139522243E-02
(PID.TID 0000.0001) %MON dynstat_vvel_max             =   7.3980767685029E-02
(PID.TID 0000.0001) %MON dynstat_vvel_min             =  -1.3194114319208E-01
(PID.TID 0000.0001) %MON dynstat_vvel_mean            =  -5.9877253866176E-03
(PID.TID 0000.0001) %MON dynstat_vvel_sd              =   1.5454119308139E-02
(PID.TID 0000.0001) %MON dynstat_wvel_max             =   1.4994091536916E-04
(PID.TID 0000.0001) %MON dynstat_wvel_min             =  -1.6350851214701E-04
(PID.TID 0000.0001) %MON dynstat_wvel_mean            =   3.0046080452624E-07
(PID.TID 0000.0001) %MON dynstat_wvel_sd              =   2.3705816823662E-05
(PID.TID 0000.0001) %MON dynstat_theta_max            =   2.6108935192919E+01
(PID.TID 0000.0001) %MON dynstat_theta_min            =   1.8064548070523E+00
(PID.TID 0000.0001) %MON dynstat_theta_mean           =   1.2445894376374E+01
(PID.TID 0000.0001) %MON dynstat_theta_sd             =   7.6483747029775E+00
(PID.TID 0000.0001) %MON dynstat_salt_max             =   3.7402918028043E+01
(PID.TID 0000.0001) %MON dynstat_salt_min             =   3.4726801122118E+01
(PID.TID 0000.0001) %MON dynstat_salt_mean            =   3.5765137828744E+01
(PID.TID 0000.0001) %MON dynstat_salt_sd              =   7.4212258077796E-01
(PID.TID 0000.0001) %MON advcfl_uvel_max              =   3.4242397422285E-03
(PID.TID 0000.0001) %MON advcfl_vvel_max              =   2.1361706700577E-03
(PID.TID 0000.0001) %MON advcfl_wvel_max              =   4.9018805761704E-03
(PID.TID 0000.0001) %MON advcfl_W_hf_max              =   9.8037611523409E-03
(PID.TID 0000.0001) %MON ke_max                       =   1.9369972544189E-02
(PID.TID 0000.0001) %MON ke_mean                      =   5.0786699886494E-04
(PID.TID 0000.0001) // =======================================================
(PID.TID 0000.0001) // End MONITOR dynamic field statistics
(PID.TID 0000.0001) // =======================================================
 cg2d: Sum(rhs),rhsMax =   1.32793082086025E-14  5.45297992539025E-01
(PID.TID 0000.0001)                    cg2d_init_res =    1.16565799301424E-01
(PID.TID 0000.0001)                       cg2d_iters =    45
(PID.TID 0000.0001)                         cg2d_res =    6.83037521753466E-14
(PID.TID 0000.0001) // =======================================================
(PID.TID 0000.0001) // Begin MONITOR dynamic field statistics
(PID.TID 0000.0001) // =======================================================
(PID.TID 0000.0001) %MON time_tsnumber                =                    12
(PID.TID 0000.0001) %MON time_secondsf                =   4.3200000000000E+04
(PID.TID 0000.0001) %MON time_secondsi                =                 43200
(PID.TID 0000.0001) %MON dynstat_eta_max              =   1.4574302957727E-01
(PID.TID 0000.0001) %MON dynstat_eta_min              =  -2.0704057715290E-01
(PID.TID 0000.0001) %MON dynstat_eta_mean             =  -2.1937828018668E-03
(PID.TID 0000.0001) %MON dynstat_eta_sd               =   7.2289395546798E-02
(PID.TID 0000.0001) %MON dynstat_uvel_max             =   4.6111545877314E-02
(PID.TID 0000.0001) %MON dynstat_uvel_min             =  -2.0998524565447E-01
(PID.TID 0000.0001) %MON dynstat_uvel_mean            =  -6.7120547007808E-03
(PID.TID 0000.0001) %MON dynstat_uvel_sd              =   2.8840034458493E-02
(PID.TID 0000.0001) %MON dynstat_vvel_max             =   7.6773150408143E-02
(PID.TID 0000.0001) %MON dynstat_vvel_min             =  -1.3654757185126E-01
(PID.TID 0000.0001) %MON dynstat_vvel_mean            =  -5.6463635713946E-03
(PID.TID 0000.0001) %MON dynstat_vvel_sd              =   1.5702845665904E-02
(PID.TID 0000.0001) %MON dynstat_wvel_max             =   1.5170809287151E-04
(PID.TID 0000.0001) %MON dynstat_wvel_min             =  -1.5549558508829E-04
(PID.TID 0000.0001) %MON dynstat_wvel_mean            =   3.0057350402393E-07
(PID.TID 0000.0001) %MON dynstat_wvel_sd              =   2.2954381125253E-05
(PID.TID 0000.0001) %MON dynstat_theta_max            =   2.6115712323671E+01
(PID.TID 0000.0001) %MON dynstat_theta_min            =   1.8064566492903E+00
(PID.TID 0000.0001) %MON dynstat_theta_mean           =   1.2446144319816E+01
(PID.TID 0000.0001) %MON dynstat_theta_sd             =   7.6486558742591E+00
(PID.TID 0000.0001) %MON dynstat_salt_max             =   3.7403252847307E+01
(PID.TID 0000.0001) %MON dynstat_salt_min             =   3.4726803102633E+01
(PID.TID 0000.0001) %MON dynstat_salt_mean            =   3.5765163239249E+01
(PID.TID 0000.0001) %MON dynstat_salt_sd              =   7.4214170239452E-01
(PID.TID 0000.0001) %MON advcfl_uvel_max              =   3.5550701121363E-03
(PID.TID 0000.0001) %MON advcfl_vvel_max              =   2.2107502709115E-03
(PID.TID 0000.0001) %MON advcfl_wvel_max              =   4.4913450038758E-03
(PID.TID 0000.0001) %MON advcfl_W_hf_max              =   8.4771300280972E-03
(PID.TID 0000.0001) %MON ke_max                       =   2.1296994536574E-02
(PID.TID 0000.0001) %MON ke_mean                      =   5.2751582455692E-04
(PID.TID 0000.0001) // =======================================================
(PID.TID 0000.0001) // End MONITOR dynamic field statistics
(PID.TID 0000.0001) // =======================================================
 S/R EXTERNAL_FIELDS_LOAD: Reading new data   43200.00000000000              12
(PID.TID 0000.0001)  MDSREADFIELD: opening global file: kf_fu
(PID.TID 0000.0001)  MDSREADFIELD: opening global file: kf_fu
(PID.TID 0000.0001)  MDSREADFIELD: opening global file: kf_fv
(PID.TID 0000.0001)  MDSREADFIELD: opening global file: kf_fv
(PID.TID 0000.0001)  MDSREADFIELD: opening global file: kf_qnet
(PID.TID 0000.0001)  MDSREADFIELD: opening global file: kf_qnet
(PID.TID 0000.0001)  MDSREADFIELD: opening global file: kf_empmr
(PID.TID 0000.0001)  MDSREADFIELD: opening global file: kf_empmr
(PID.TID 0000.0001)  MDSREADFIELD: opening global file: kf_sst
(PID.TID 0000.0001)  MDSREADFIELD: opening global file: kf_sst
(PID.TID 0000.0001)  MDSREADFIELD: opening global file: kf_sss
(PID.TID 0000.0001)  MDSREADFIELD: opening global file: kf_sss
(PID.TID 0000.0001)  MDSREADFIELD: opening global file: kf_sw
(PID.TID 0000.0001)  MDSREADFIELD: opening global file: kf_sw
 cg2d: Sum(rhs),rhsMax =   1.33426256154756E-14  5.42106069023062E-01
(PID.TID 0000.0001)                    cg2d_init_res =    9.01764295480501E-02
(PID.TID 0000.0001)                       cg2d_iters =    45
(PID.TID 0000.0001)                         cg2d_res =    8.96962987396535E-14
(PID.TID 0000.0001) // =======================================================
(PID.TID 0000.0001) // Begin MONITOR dynamic field statistics
(PID.TID 0000.0001) // =======================================================
(PID.TID 0000.0001) %MON time_tsnumber                =                    13
(PID.TID 0000.0001) %MON time_secondsf                =   4.6800000000000E+04
(PID.TID 0000.0001) %MON time_secondsi                =                 46800
(PID.TID 0000.0001) %MON dynstat_eta_max              =   1.4671820957900E-01
(PID.TID 0000.0001) %MON dynstat_eta_min              =  -2.0578747309561E-01
(PID.TID 0000.0001) %MON dynstat_eta_mean             =  -2.0461932491364E-03
(PID.TID 0000.0001) %MON dynstat_eta_sd               =   7.2982238583422E-02
(PID.TID 0000.0001) %MON dynstat_uvel_max             =   4.5572793697110E-02
(PID.TID 0000.0001) %MON dynstat_uvel_min             =  -2.1344111627048E-01
(PID.TID 0000.0001) %MON dynstat_uvel_mean            =  -7.7833480985797E-03
(PID.TID 0000.0001) %MON dynstat_uvel_sd              =   2.8913522932954E-02
(PID.TID 0000.0001) %MON dynstat_vvel_max             =   7.7412999033104E-02
(PID.TID 0000.0001) %MON dynstat_vvel_min             =  -1.3955297630656E-01
(PID.TID 0000.0001) %MON dynstat_vvel_mean            =  -5.0982443024054E-03
(PID.TID 0000.0001) %MON dynstat_vvel_sd              =   1.6012486486838E-02
(PID.TID 0000.0001) %MON dynstat_wvel_max             =   1.5090555823767E-04
(PID.TID 0000.0001) %MON dynstat_wvel_min             =  -1.5152352532093E-04
(PID.TID 0000.0001) %MON dynstat_wvel_mean            =   2.6551266981836E-07
(PID.TID 0000.0001) %MON dynstat_wvel_sd              =   2.2509471943424E-05
(PID.TID 0000.0001) %MON dynstat_theta_max            =   2.6122368866995E+01
(PID.TID 0000.0001) %MON dynstat_theta_min            =   1.8064584952312E+00
(PID.TID 0000.0001) %MON dynstat_theta_mean           =   1.2446372609283E+01
(PID.TID 0000.0001) %MON dynstat_theta_sd             =   7.6489126298411E+00
(PID.TID 0000.0001) %MON dynstat_salt_max             =   3.7403603077049E+01
(PID.TID 0000.0001) %MON dynstat_salt_min             =   3.4726806065798E+01
(PID.TID 0000.0001) %MON dynstat_salt_mean            =   3.5765187372653E+01
(PID.TID 0000.0001) %MON dynstat_salt_sd              =   7.4216029387459E-01
(PID.TID 0000.0001) %MON advcfl_uvel_max              =   3.6135783292259E-03
(PID.TID 0000.0001) %MON advcfl_vvel_max              =   2.2594087613091E-03
(PID.TID 0000.0001) %MON advcfl_wvel_max              =   4.3471065687418E-03
(PID.TID 0000.0001) %MON advcfl_W_hf_max              =   7.0433844503050E-03
(PID.TID 0000.0001) %MON ke_max                       =   2.2862494994437E-02
(PID.TID 0000.0001) %MON ke_mean                      =   5.3835931534135E-04
(PID.TID 0000.0001) // =======================================================
(PID.TID 0000.0001) // End MONITOR dynamic field statistics
(PID.TID 0000.0001) // =======================================================
 cg2d: Sum(rhs),rhsMax =   1.76846384758456E-14  5.41934949577632E-01
(PID.TID 0000.0001)                    cg2d_init_res =    7.96146115290514E-02
(PID.TID 0000.0001)                       cg2d_iters =    45
(PID.TID 0000.0001)                         cg2d_res =    9.05790679648210E-14
(PID.TID 0000.0001) // =======================================================
(PID.TID 0000.0001) // Begin MONITOR dynamic field statistics
(PID.TID 0000.0001) // =======================================================
(PID.TID 0000.0001) %MON time_tsnumber                =                    14
(PID.TID 0000.0001) %MON time_secondsf                =   5.0400000000000E+04
(PID.TID 0000.0001) %MON time_secondsi                =                 50400
(PID.TID 0000.0001) %MON dynstat_eta_max              =   1.4888181384442E-01
(PID.TID 0000.0001) %MON dynstat_eta_min              =  -2.0790915650165E-01
(PID.TID 0000.0001) %MON dynstat_eta_mean             =  -2.0621767304373E-03
(PID.TID 0000.0001) %MON dynstat_eta_sd               =   7.4563657361707E-02
(PID.TID 0000.0001) %MON dynstat_uvel_max             =   4.3470943436458E-02
(PID.TID 0000.0001) %MON dynstat_uvel_min             =  -2.1477252878378E-01
(PID.TID 0000.0001) %MON dynstat_uvel_mean            =  -8.6423550536326E-03
(PID.TID 0000.0001) %MON dynstat_uvel_sd              =   2.8716594356607E-02
(PID.TID 0000.0001) %MON dynstat_vvel_max             =   8.1050482634944E-02
(PID.TID 0000.0001) %MON dynstat_vvel_min             =  -1.4074214668772E-01
(PID.TID 0000.0001) %MON dynstat_vvel_mean            =  -4.3261835554746E-03
(PID.TID 0000.0001) %MON dynstat_vvel_sd              =   1.6341213187725E-02
(PID.TID 0000.0001) %MON dynstat_wvel_max             =   1.4750788716399E-04
(PID.TID 0000.0001) %MON dynstat_wvel_min             =  -1.5893253677191E-04
(PID.TID 0000.0001) %MON dynstat_wvel_mean            =   2.0975218308302E-07
(PID.TID 0000.0001) %MON dynstat_wvel_sd              =   2.2324577206764E-05
(PID.TID 0000.0001) %MON dynstat_theta_max            =   2.6128822198830E+01
(PID.TID 0000.0001) %MON dynstat_theta_min            =   1.8064604100804E+00
(PID.TID 0000.0001) %MON dynstat_theta_mean           =   1.2446579304888E+01
(PID.TID 0000.0001) %MON dynstat_theta_sd             =   7.6491460057421E+00
(PID.TID 0000.0001) %MON dynstat_salt_max             =   3.7403965470321E+01
(PID.TID 0000.0001) %MON dynstat_salt_min             =   3.4726810055940E+01
(PID.TID 0000.0001) %MON dynstat_salt_mean            =   3.5765210600685E+01
(PID.TID 0000.0001) %MON dynstat_salt_sd              =   7.4217886074357E-01
(PID.TID 0000.0001) %MON advcfl_uvel_max              =   3.6336967655405E-03
(PID.TID 0000.0001) %MON advcfl_vvel_max              =   2.2786618223974E-03
(PID.TID 0000.0001) %MON advcfl_wvel_max              =   4.1581354988552E-03
(PID.TID 0000.0001) %MON advcfl_W_hf_max              =   6.0458178781097E-03
(PID.TID 0000.0001) %MON ke_max                       =   2.3986485313574E-02
(PID.TID 0000.0001) %MON ke_mean                      =   5.4113303230256E-04
(PID.TID 0000.0001) // =======================================================
(PID.TID 0000.0001) // End MONITOR dynamic field statistics
(PID.TID 0000.0001) // =======================================================
 cg2d: Sum(rhs),rhsMax =   1.65076285973953E-14  5.43849097481811E-01
(PID.TID 0000.0001)                    cg2d_init_res =    8.29647550074561E-02
(PID.TID 0000.0001)                       cg2d_iters =    45
(PID.TID 0000.0001)                         cg2d_res =    6.64257331508675E-14
(PID.TID 0000.0001) // =======================================================
(PID.TID 0000.0001) // Begin MONITOR dynamic field statistics
(PID.TID 0000.0001) // =======================================================
(PID.TID 0000.0001) %MON time_tsnumber                =                    15
(PID.TID 0000.0001) %MON time_secondsf                =   5.4000000000000E+04
(PID.TID 0000.0001) %MON time_secondsi                =                 54000
(PID.TID 0000.0001) %MON dynstat_eta_max              =   1.5127704906228E-01
(PID.TID 0000.0001) %MON dynstat_eta_min              =  -2.1224719848133E-01
(PID.TID 0000.0001) %MON dynstat_eta_mean             =  -2.1895832858302E-03
(PID.TID 0000.0001) %MON dynstat_eta_sd               =   7.6458261069534E-02
(PID.TID 0000.0001) %MON dynstat_uvel_max             =   3.9991052077136E-02
(PID.TID 0000.0001) %MON dynstat_uvel_min             =  -2.1879746873314E-01
(PID.TID 0000.0001) %MON dynstat_uvel_mean            =  -9.2395253648729E-03
(PID.TID 0000.0001) %MON dynstat_uvel_sd              =   2.8304239032959E-02
(PID.TID 0000.0001) %MON dynstat_vvel_max             =   8.3990709732658E-02
(PID.TID 0000.0001) %MON dynstat_vvel_min             =  -1.3989253141526E-01
(PID.TID 0000.0001) %MON dynstat_vvel_mean            =  -3.3265326960948E-03
(PID.TID 0000.0001) %MON dynstat_vvel_sd              =   1.6635637318773E-02
(PID.TID 0000.0001) %MON dynstat_wvel_max             =   1.4155548378197E-04
(PID.TID 0000.0001) %MON dynstat_wvel_min             =  -1.6486549077397E-04
(PID.TID 0000.0001) %MON dynstat_wvel_mean            =   1.4858195467377E-07
(PID.TID 0000.0001) %MON dynstat_wvel_sd              =   2.2205344522852E-05
(PID.TID 0000.0001) %MON dynstat_theta_max            =   2.6135111119235E+01
(PID.TID 0000.0001) %MON dynstat_theta_min            =   1.8064624590905E+00
(PID.TID 0000.0001) %MON dynstat_theta_mean           =   1.2446770013007E+01
(PID.TID 0000.0001) %MON dynstat_theta_sd             =   7.6493629995978E+00
(PID.TID 0000.0001) %MON dynstat_salt_max             =   3.7404332419152E+01
(PID.TID 0000.0001) %MON dynstat_salt_min             =   3.4726814940045E+01
(PID.TID 0000.0001) %MON dynstat_salt_mean            =   3.5765232926591E+01
(PID.TID 0000.0001) %MON dynstat_salt_sd              =   7.4219743761019E-01
(PID.TID 0000.0001) %MON advcfl_uvel_max              =   3.6819023258127E-03
(PID.TID 0000.0001) %MON advcfl_vvel_max              =   2.2649062706267E-03
(PID.TID 0000.0001) %MON advcfl_wvel_max              =   3.9789536253994E-03
(PID.TID 0000.0001) %MON advcfl_W_hf_max              =   6.6157360358658E-03
(PID.TID 0000.0001) %MON ke_max                       =   2.4839864487391E-02
(PID.TID 0000.0001) %MON ke_mean                      =   5.3616137024630E-04
(PID.TID 0000.0001) // =======================================================
(PID.TID 0000.0001) // End MONITOR dynamic field statistics
(PID.TID 0000.0001) // =======================================================
 cg2d: Sum(rhs),rhsMax =   2.28098789856190E-14  5.46920338975981E-01
(PID.TID 0000.0001)                    cg2d_init_res =    8.43607133238968E-02
(PID.TID 0000.0001)                       cg2d_iters =    44
(PID.TID 0000.0001)                         cg2d_res =    7.59953878569358E-14
(PID.TID 0000.0001) // =======================================================
(PID.TID 0000.0001) // Begin MONITOR dynamic field statistics
(PID.TID 0000.0001) // =======================================================
(PID.TID 0000.0001) %MON time_tsnumber                =                    16
(PID.TID 0000.0001) %MON time_secondsf                =   5.7600000000000E+04
(PID.TID 0000.0001) %MON time_secondsi                =                 57600
(PID.TID 0000.0001) %MON dynstat_eta_max              =   1.5316399909128E-01
(PID.TID 0000.0001) %MON dynstat_eta_min              =  -2.1737722941052E-01
(PID.TID 0000.0001) %MON dynstat_eta_mean             =  -2.3593094493800E-03
(PID.TID 0000.0001) %MON dynstat_eta_sd               =   7.8234966160238E-02
(PID.TID 0000.0001) %MON dynstat_uvel_max             =   3.5666603200024E-02
(PID.TID 0000.0001) %MON dynstat_uvel_min             =  -2.2089709757588E-01
(PID.TID 0000.0001) %MON dynstat_uvel_mean            =  -9.5461087722766E-03
(PID.TID 0000.0001) %MON dynstat_uvel_sd              =   2.7744689845986E-02
(PID.TID 0000.0001) %MON dynstat_vvel_max             =   8.8869555084531E-02
(PID.TID 0000.0001) %MON dynstat_vvel_min             =  -1.3685823081144E-01
(PID.TID 0000.0001) %MON dynstat_vvel_mean            =  -2.1429808420101E-03
(PID.TID 0000.0001) %MON dynstat_vvel_sd              =   1.6872981836478E-02
(PID.TID 0000.0001) %MON dynstat_wvel_max             =   1.3315465092576E-04
(PID.TID 0000.0001) %MON dynstat_wvel_min             =  -1.6931863337570E-04
(PID.TID 0000.0001) %MON dynstat_wvel_mean            =   9.3569546668623E-08
(PID.TID 0000.0001) %MON dynstat_wvel_sd              =   2.1915361272494E-05
(PID.TID 0000.0001) %MON dynstat_theta_max            =   2.6141264388378E+01
(PID.TID 0000.0001) %MON dynstat_theta_min            =   1.8064646926731E+00
(PID.TID 0000.0001) %MON dynstat_theta_mean           =   1.2446952358883E+01
(PID.TID 0000.0001) %MON dynstat_theta_sd             =   7.6495729849793E+00
(PID.TID 0000.0001) %MON dynstat_salt_max             =   3.7404701907299E+01
(PID.TID 0000.0001) %MON dynstat_salt_min             =   3.4726820545600E+01
(PID.TID 0000.0001) %MON dynstat_salt_mean            =   3.5765254250991E+01
(PID.TID 0000.0001) %MON dynstat_salt_sd              =   7.4221585484798E-01
(PID.TID 0000.0001) %MON advcfl_uvel_max              =   3.7025585650091E-03
(PID.TID 0000.0001) %MON advcfl_vvel_max              =   2.2157799420442E-03
(PID.TID 0000.0001) %MON advcfl_wvel_max              =   4.1813023820118E-03
(PID.TID 0000.0001) %MON advcfl_W_hf_max              =   7.1290950937335E-03
(PID.TID 0000.0001) %MON ke_max                       =   2.5433264394055E-02
(PID.TID 0000.0001) %MON ke_mean                      =   5.2506558422897E-04
(PID.TID 0000.0001) // =======================================================
(PID.TID 0000.0001) // End MONITOR dynamic field statistics
(PID.TID 0000.0001) // =======================================================
 cg2d: Sum(rhs),rhsMax =   2.15348572307761E-14  5.49958373135332E-01
(PID.TID 0000.0001)                    cg2d_init_res =    7.83790133836522E-02
(PID.TID 0000.0001)                       cg2d_iters =    44
(PID.TID 0000.0001)                         cg2d_res =    6.39528230017607E-14
(PID.TID 0000.0001) // =======================================================
(PID.TID 0000.0001) // Begin MONITOR dynamic field statistics
(PID.TID 0000.0001) // =======================================================
(PID.TID 0000.0001) %MON time_tsnumber                =                    17
(PID.TID 0000.0001) %MON time_secondsf                =   6.1200000000000E+04
(PID.TID 0000.0001) %MON time_secondsi                =                 61200
(PID.TID 0000.0001) %MON dynstat_eta_max              =   1.5413045081670E-01
(PID.TID 0000.0001) %MON dynstat_eta_min              =  -2.2194154365707E-01
(PID.TID 0000.0001) %MON dynstat_eta_mean             =  -2.5099260771180E-03
(PID.TID 0000.0001) %MON dynstat_eta_sd               =   7.9558598026198E-02
(PID.TID 0000.0001) %MON dynstat_uvel_max             =   3.6327904599980E-02
(PID.TID 0000.0001) %MON dynstat_uvel_min             =  -2.2112782006316E-01
(PID.TID 0000.0001) %MON dynstat_uvel_mean            =  -9.5521976149234E-03
(PID.TID 0000.0001) %MON dynstat_uvel_sd              =   2.7083532237938E-02
(PID.TID 0000.0001) %MON dynstat_vvel_max             =   1.0002663131167E-01
(PID.TID 0000.0001) %MON dynstat_vvel_min             =  -1.3172651691331E-01
(PID.TID 0000.0001) %MON dynstat_vvel_mean            =  -8.5313876367947E-04
(PID.TID 0000.0001) %MON dynstat_vvel_sd              =   1.7056693170349E-02
(PID.TID 0000.0001) %MON dynstat_wvel_max             =   1.2252270273368E-04
(PID.TID 0000.0001) %MON dynstat_wvel_min             =  -1.7225652084713E-04
(PID.TID 0000.0001) %MON dynstat_wvel_mean            =   5.0656011259368E-08
(PID.TID 0000.0001) %MON dynstat_wvel_sd              =   2.1295446558480E-05
(PID.TID 0000.0001) %MON dynstat_theta_max            =   2.6147311834898E+01
(PID.TID 0000.0001) %MON dynstat_theta_min            =   1.8064671445488E+00
(PID.TID 0000.0001) %MON dynstat_theta_mean           =   1.2447132776639E+01
(PID.TID 0000.0001) %MON dynstat_theta_sd             =   7.6497831948041E+00
(PID.TID 0000.0001) %MON dynstat_salt_max             =   3.7405072204515E+01
(PID.TID 0000.0001) %MON dynstat_salt_min             =   3.4726826713837E+01
(PID.TID 0000.0001) %MON dynstat_salt_mean            =   3.5765274521179E+01
(PID.TID 0000.0001) %MON dynstat_salt_sd              =   7.4223392841390E-01
(PID.TID 0000.0001) %MON advcfl_uvel_max              =   3.7064258114816E-03
(PID.TID 0000.0001) %MON advcfl_vvel_max              =   2.1326957997432E-03
(PID.TID 0000.0001) %MON advcfl_wvel_max              =   4.5709866308670E-03
(PID.TID 0000.0001) %MON advcfl_W_hf_max              =   7.5434941115574E-03
(PID.TID 0000.0001) %MON ke_max                       =   2.5765682658613E-02
(PID.TID 0000.0001) %MON ke_mean                      =   5.0953156039956E-04
(PID.TID 0000.0001) // =======================================================
(PID.TID 0000.0001) // End MONITOR dynamic field statistics
(PID.TID 0000.0001) // =======================================================
 cg2d: Sum(rhs),rhsMax =   2.06223926824123E-14  5.51916207945649E-01
(PID.TID 0000.0001)                    cg2d_init_res =    6.92741328036029E-02
(PID.TID 0000.0001)                       cg2d_iters =    44
(PID.TID 0000.0001)                         cg2d_res =    8.64614666484240E-14
(PID.TID 0000.0001) // =======================================================
(PID.TID 0000.0001) // Begin MONITOR dynamic field statistics
(PID.TID 0000.0001) // =======================================================
(PID.TID 0000.0001) %MON time_tsnumber                =                    18
(PID.TID 0000.0001) %MON time_secondsf                =   6.4800000000000E+04
(PID.TID 0000.0001) %MON time_secondsi                =                 64800
(PID.TID 0000.0001) %MON dynstat_eta_max              =   1.5411149380413E-01
(PID.TID 0000.0001) %MON dynstat_eta_min              =  -2.2500255761063E-01
(PID.TID 0000.0001) %MON dynstat_eta_mean             =  -2.6028378926398E-03
(PID.TID 0000.0001) %MON dynstat_eta_sd               =   8.0234745824671E-02
(PID.TID 0000.0001) %MON dynstat_uvel_max             =   3.5221301327684E-02
(PID.TID 0000.0001) %MON dynstat_uvel_min             =  -2.1957788033261E-01
(PID.TID 0000.0001) %MON dynstat_uvel_mean            =  -9.2691189842715E-03
(PID.TID 0000.0001) %MON dynstat_uvel_sd              =   2.6360986374847E-02
(PID.TID 0000.0001) %MON dynstat_vvel_max             =   1.1134983541601E-01
(PID.TID 0000.0001) %MON dynstat_vvel_min             =  -1.2617315566926E-01
(PID.TID 0000.0001) %MON dynstat_vvel_mean            =   4.4599602075455E-04
(PID.TID 0000.0001) %MON dynstat_vvel_sd              =   1.7219403627458E-02
(PID.TID 0000.0001) %MON dynstat_wvel_max             =   1.0997000897714E-04
(PID.TID 0000.0001) %MON dynstat_wvel_min             =  -1.7361456544425E-04
(PID.TID 0000.0001) %MON dynstat_wvel_mean            =   2.0612916633261E-08
(PID.TID 0000.0001) %MON dynstat_wvel_sd              =   2.0328369607224E-05
(PID.TID 0000.0001) %MON dynstat_theta_max            =   2.6153275957590E+01
(PID.TID 0000.0001) %MON dynstat_theta_min            =   1.8064698323284E+00
(PID.TID 0000.0001) %MON dynstat_theta_mean           =   1.2447315625946E+01
(PID.TID 0000.0001) %MON dynstat_theta_sd             =   7.6499982237754E+00
(PID.TID 0000.0001) %MON dynstat_salt_max             =   3.7405441647488E+01
(PID.TID 0000.0001) %MON dynstat_salt_min             =   3.4726833344173E+01
(PID.TID 0000.0001) %MON dynstat_salt_mean            =   3.5765293830550E+01
(PID.TID 0000.0001) %MON dynstat_salt_sd              =   7.4225159899658E-01
(PID.TID 0000.0001) %MON advcfl_uvel_max              =   3.6804465537749E-03
(PID.TID 0000.0001) %MON advcfl_vvel_max              =   2.0427850477006E-03
(PID.TID 0000.0001) %MON advcfl_wvel_max              =   4.8582327890425E-03
(PID.TID 0000.0001) %MON advcfl_W_hf_max              =   7.8961939649272E-03
(PID.TID 0000.0001) %MON ke_max                       =   2.5831671634012E-02
(PID.TID 0000.0001) %MON ke_mean                      =   4.9161139370078E-04
(PID.TID 0000.0001) // =======================================================
(PID.TID 0000.0001) // End MONITOR dynamic field statistics
(PID.TID 0000.0001) // =======================================================
 cg2d: Sum(rhs),rhsMax =   1.95711502559703E-14  5.52147648295844E-01
(PID.TID 0000.0001)                    cg2d_init_res =    6.30180151686682E-02
(PID.TID 0000.0001)                       cg2d_iters =    44
(PID.TID 0000.0001)                         cg2d_res =    9.39080312479291E-14
(PID.TID 0000.0001) // =======================================================
(PID.TID 0000.0001) // Begin MONITOR dynamic field statistics
(PID.TID 0000.0001) // =======================================================
(PID.TID 0000.0001) %MON time_tsnumber                =                    19
(PID.TID 0000.0001) %MON time_secondsf                =   6.8400000000000E+04
(PID.TID 0000.0001) %MON time_secondsi                =                 68400
(PID.TID 0000.0001) %MON dynstat_eta_max              =   1.5332232338085E-01
(PID.TID 0000.0001) %MON dynstat_eta_min              =  -2.2623576438071E-01
(PID.TID 0000.0001) %MON dynstat_eta_mean             =  -2.6264458260280E-03
(PID.TID 0000.0001) %MON dynstat_eta_sd               =   8.0269823239555E-02
(PID.TID 0000.0001) %MON dynstat_uvel_max             =   3.2498447634212E-02
(PID.TID 0000.0001) %MON dynstat_uvel_min             =  -2.1634826629526E-01
(PID.TID 0000.0001) %MON dynstat_uvel_mean            =  -8.7287553859152E-03
(PID.TID 0000.0001) %MON dynstat_uvel_sd              =   2.5612190977867E-02
(PID.TID 0000.0001) %MON dynstat_vvel_max             =   1.2117385262617E-01
(PID.TID 0000.0001) %MON dynstat_vvel_min             =  -1.2033863103676E-01
(PID.TID 0000.0001) %MON dynstat_vvel_mean            =   1.6551708568119E-03
(PID.TID 0000.0001) %MON dynstat_vvel_sd              =   1.7396212584169E-02
(PID.TID 0000.0001) %MON dynstat_wvel_max             =   9.5869883837503E-05
(PID.TID 0000.0001) %MON dynstat_wvel_min             =  -1.7332113529879E-04
(PID.TID 0000.0001) %MON dynstat_wvel_mean            =   9.2778539173107E-10
(PID.TID 0000.0001) %MON dynstat_wvel_sd              =   1.9147310832090E-05
(PID.TID 0000.0001) %MON dynstat_theta_max            =   2.6159167994877E+01
(PID.TID 0000.0001) %MON dynstat_theta_min            =   1.8064727610140E+00
(PID.TID 0000.0001) %MON dynstat_theta_mean           =   1.2447502758457E+01
(PID.TID 0000.0001) %MON dynstat_theta_sd             =   7.6502195774206E+00
(PID.TID 0000.0001) %MON dynstat_salt_max             =   3.7405808612368E+01
(PID.TID 0000.0001) %MON dynstat_salt_min             =   3.4726840408738E+01
(PID.TID 0000.0001) %MON dynstat_salt_mean            =   3.5765312290717E+01
(PID.TID 0000.0001) %MON dynstat_salt_sd              =   7.4226885590154E-01
(PID.TID 0000.0001) %MON advcfl_uvel_max              =   3.6263134970400E-03
(PID.TID 0000.0001) %MON advcfl_vvel_max              =   1.9618446808596E-03
(PID.TID 0000.0001) %MON advcfl_wvel_max              =   5.0239967821742E-03
(PID.TID 0000.0001) %MON advcfl_W_hf_max              =   8.0027781158207E-03
(PID.TID 0000.0001) %MON ke_max                       =   2.5623471312597E-02
(PID.TID 0000.0001) %MON ke_mean                      =   4.7315260056071E-04
(PID.TID 0000.0001) // =======================================================
(PID.TID 0000.0001) // End MONITOR dynamic field statistics
(PID.TID 0000.0001) // =======================================================
 cg2d: Sum(rhs),rhsMax =   2.20171103570976E-14  5.50497557819937E-01
(PID.TID 0000.0001)                    cg2d_init_res =    6.13181043530972E-02
(PID.TID 0000.0001)                       cg2d_iters =    44
(PID.TID 0000.0001)                         cg2d_res =    8.10435008501497E-14
(PID.TID 0000.0001) // =======================================================
(PID.TID 0000.0001) // Begin MONITOR dynamic field statistics
(PID.TID 0000.0001) // =======================================================
(PID.TID 0000.0001) %MON time_tsnumber                =                    20
(PID.TID 0000.0001) %MON time_secondsf                =   7.2000000000000E+04
(PID.TID 0000.0001) %MON time_secondsi                =                 72000
(PID.TID 0000.0001) %MON dynstat_eta_max              =   1.5213805831969E-01
(PID.TID 0000.0001) %MON dynstat_eta_min              =  -2.2591636504246E-01
(PID.TID 0000.0001) %MON dynstat_eta_mean             =  -2.5915909988391E-03
(PID.TID 0000.0001) %MON dynstat_eta_sd               =   7.9861249206326E-02
(PID.TID 0000.0001) %MON dynstat_uvel_max             =   3.2081719540654E-02
(PID.TID 0000.0001) %MON dynstat_uvel_min             =  -2.1152929802439E-01
(PID.TID 0000.0001) %MON dynstat_uvel_mean            =  -7.9792655875504E-03
(PID.TID 0000.0001) %MON dynstat_uvel_sd              =   2.4868454843769E-02
(PID.TID 0000.0001) %MON dynstat_vvel_max             =   1.2928220537940E-01
(PID.TID 0000.0001) %MON dynstat_vvel_min             =  -1.1437549460987E-01
(PID.TID 0000.0001) %MON dynstat_vvel_mean            =   2.6869262527341E-03
(PID.TID 0000.0001) %MON dynstat_vvel_sd              =   1.7612991317676E-02
(PID.TID 0000.0001) %MON dynstat_wvel_max             =   8.0621833403271E-05
(PID.TID 0000.0001) %MON dynstat_wvel_min             =  -1.7150301733312E-04
(PID.TID 0000.0001) %MON dynstat_wvel_mean            =  -1.1978223711719E-08
(PID.TID 0000.0001) %MON dynstat_wvel_sd              =   1.8001306809187E-05
(PID.TID 0000.0001) %MON dynstat_theta_max            =   2.6164988121693E+01
(PID.TID 0000.0001) %MON dynstat_theta_min            =   1.8064759285567E+00
(PID.TID 0000.0001) %MON dynstat_theta_mean           =   1.2447693770873E+01
(PID.TID 0000.0001) %MON dynstat_theta_sd             =   7.6504461021946E+00
(PID.TID 0000.0001) %MON dynstat_salt_max             =   3.7406171048911E+01
(PID.TID 0000.0001) %MON dynstat_salt_min             =   3.4726847936652E+01
(PID.TID 0000.0001) %MON dynstat_salt_mean            =   3.5765330022364E+01
(PID.TID 0000.0001) %MON dynstat_salt_sd              =   7.4228574758270E-01
(PID.TID 0000.0001) %MON advcfl_uvel_max              =   3.5455405378584E-03
(PID.TID 0000.0001) %MON advcfl_vvel_max              =   2.0931215889937E-03
(PID.TID 0000.0001) %MON advcfl_wvel_max              =   5.1003564100281E-03
(PID.TID 0000.0001) %MON advcfl_W_hf_max              =   7.9516139492826E-03
(PID.TID 0000.0001) %MON ke_max                       =   2.5138243848065E-02
(PID.TID 0000.0001) %MON ke_mean                      =   4.5556739118443E-04
(PID.TID 0000.0001) // =======================================================
(PID.TID 0000.0001) // End MONITOR dynamic field statistics
(PID.TID 0000.0001) // =======================================================
(PID.TID 0000.0001)  Seconds in section "ALL                [THE_MODEL_MAIN]":
(PID.TID 0000.0001)          User time:   3.269360980950296
(PID.TID 0000.0001)        System time:  0.1920449994504452
(PID.TID 0000.0001)    Wall clock time:   4.107308983802795
(PID.TID 0000.0001)         No. starts:           1
(PID.TID 0000.0001)          No. stops:           1
(PID.TID 0000.0001)  Seconds in section "INITIALISE_FIXED   [THE_MODEL_MAIN]":
(PID.TID 0000.0001)          User time:  0.1490599941462278
(PID.TID 0000.0001)        System time:  3.3697998151183128E-02
(PID.TID 0000.0001)    Wall clock time:  0.4297920465469360
(PID.TID 0000.0001)         No. starts:           1
(PID.TID 0000.0001)          No. stops:           1
(PID.TID 0000.0001)  Seconds in section "THE_MAIN_LOOP      [THE_MODEL_MAIN]":
(PID.TID 0000.0001)          User time:   3.093560993671417
(PID.TID 0000.0001)        System time:  0.1309189982712269
(PID.TID 0000.0001)    Wall clock time:   3.575875043869019
(PID.TID 0000.0001)         No. starts:           1
(PID.TID 0000.0001)          No. stops:           1
(PID.TID 0000.0001)  Seconds in section "INITIALISE_VARIA    [THE_MAIN_LOOP]":
(PID.TID 0000.0001)          User time:  0.2877920120954514
(PID.TID 0000.0001)        System time:  5.9286996722221375E-02
(PID.TID 0000.0001)    Wall clock time:  0.3480199575424194
(PID.TID 0000.0001)         No. starts:           1
(PID.TID 0000.0001)          No. stops:           1
(PID.TID 0000.0001)  Seconds in section "WRITE_STATE         [THE_MAIN_LOOP]":
(PID.TID 0000.0001)          User time:  8.1830024719238281E-03
(PID.TID 0000.0001)        System time:  9.9219977855682373E-03
(PID.TID 0000.0001)    Wall clock time:  0.1670899391174316
(PID.TID 0000.0001)         No. starts:           1
(PID.TID 0000.0001)          No. stops:           1
(PID.TID 0000.0001)  Seconds in section "MONITOR             [THE_MAIN_LOOP]":
(PID.TID 0000.0001)          User time:  7.0350170135498047E-03
(PID.TID 0000.0001)        System time:  9.1001391410827637E-05
(PID.TID 0000.0001)    Wall clock time:  7.1690082550048828E-03
(PID.TID 0000.0001)         No. starts:           1
(PID.TID 0000.0001)          No. stops:           1
(PID.TID 0000.0001)  Seconds in section "MAIN LOOP           [THE_MAIN_LOOP]":
(PID.TID 0000.0001)          User time:   2.790074080228806
(PID.TID 0000.0001)        System time:  6.1557993292808533E-02
(PID.TID 0000.0001)    Wall clock time:   3.053068041801453
(PID.TID 0000.0001)         No. starts:           1
(PID.TID 0000.0001)          No. stops:           1
(PID.TID 0000.0001)  Seconds in section "FORWARD_STEP        [THE_MAIN_LOOP]":
(PID.TID 0000.0001)          User time:   2.788223087787628
(PID.TID 0000.0001)        System time:  6.1376973986625671E-02
(PID.TID 0000.0001)    Wall clock time:   3.051042437553406
(PID.TID 0000.0001)         No. starts:          20
(PID.TID 0000.0001)          No. stops:          20
(PID.TID 0000.0001)  Seconds in section "EXTERNAL_FIELDS_LOAD[THE_MAIN_LOOP]":
(PID.TID 0000.0001)          User time:  1.4429092407226563E-02
(PID.TID 0000.0001)        System time:  1.5418052673339844E-02
(PID.TID 0000.0001)    Wall clock time:  2.9995799064636230E-02
(PID.TID 0000.0001)         No. starts:          20
(PID.TID 0000.0001)          No. stops:          20
(PID.TID 0000.0001)  Seconds in section "THERMODYNAMICS      [THE_MAIN_LOOP]":
(PID.TID 0000.0001)          User time:   1.314557969570160
(PID.TID 0000.0001)        System time:  2.0344972610473633E-02
(PID.TID 0000.0001)    Wall clock time:   1.340287923812866
(PID.TID 0000.0001)         No. starts:          20
(PID.TID 0000.0001)          No. stops:          20
(PID.TID 0000.0001)  Seconds in section "STATEKPP      [KPP_CALC]":
(PID.TID 0000.0001)          User time:  0.1168860793113708
(PID.TID 0000.0001)        System time:  3.5060048103332520E-03
(PID.TID 0000.0001)    Wall clock time:  0.1205741167068481
(PID.TID 0000.0001)         No. starts:          20
(PID.TID 0000.0001)          No. stops:          20
(PID.TID 0000.0001)  Seconds in section "KPPMIX [KPP_CALC]":
(PID.TID 0000.0001)          User time:  0.4121730923652649
(PID.TID 0000.0001)        System time:  4.098027944564819STOP NORMAL END statement executed
3E-03
(PID.TID 0000.0001)    Wall clock time:  0.4175359010696411
(PID.TID 0000.0001)         No. starts:          20
(PID.TID 0000.0001)          No. stops:          20
(PID.TID 0000.0001)  Seconds in section "DYNAMICS            [THE_MAIN_LOOP]":
(PID.TID 0000.0001)          User time:   1.001273989677429
(PID.TID 0000.0001)        System time:  5.7499855756759644E-03
(PID.TID 0000.0001)    Wall clock time:   1.012549042701721
(PID.TID 0000.0001)         No. starts:          20
(PID.TID 0000.0001)          No. stops:          20
(PID.TID 0000.0001)  Seconds in section "SOLVE_FOR_PRESSURE  [THE_MAIN_LOOP]":
(PID.TID 0000.0001)          User time:  0.1392853856086731
(PID.TID 0000.0001)        System time:  6.6502392292022705E-04
(PID.TID 0000.0001)    Wall clock time:  0.1406242847442627
(PID.TID 0000.0001)         No. starts:          20
(PID.TID 0000.0001)          No. stops:          20
(PID.TID 0000.0001)  Seconds in section "THE_CORRECTION_STEP [THE_MAIN_LOOP]":
(PID.TID 0000.0001)          User time:  6.9912970066070557E-02
(PID.TID 0000.0001)        System time:  2.0302832126617432E-04
(PID.TID 0000.0001)    Wall clock time:  7.0293664932250977E-02
(PID.TID 0000.0001)         No. starts:          20
(PID.TID 0000.0001)          No. stops:          20
(PID.TID 0000.0001)  Seconds in section "BLOCKING_EXCHANGES  [THE_MAIN_LOOP]":
(PID.TID 0000.0001)          User time:  4.1924297809600830E-02
(PID.TID 0000.0001)        System time:  2.1505355834960938E-04
(PID.TID 0000.0001)    Wall clock time:  4.2226195335388184E-02
(PID.TID 0000.0001)         No. starts:          20
(PID.TID 0000.0001)          No. stops:          20
(PID.TID 0000.0001)  Seconds in section "DO_THE_MODEL_IO     [THE_MAIN_LOOP]":
(PID.TID 0000.0001)          User time:  4.4166326522827148E-02
(PID.TID 0000.0001)        System time:  1.3026982545852661E-02
(PID.TID 0000.0001)    Wall clock time:  0.2467567920684814
(PID.TID 0000.0001)         No. starts:          20
(PID.TID 0000.0001)          No. stops:          20
(PID.TID 0000.0001)  Seconds in section "WRITE_CHECKPOINT    [THE_MAIN_LOOP]":
(PID.TID 0000.0001)          User time:  1.8651485443115234E-03
(PID.TID 0000.0001)        System time:  1.7498433589935303E-04
(PID.TID 0000.0001)    Wall clock time:  2.0468235015869141E-03
(PID.TID 0000.0001)         No. starts:          20
(PID.TID 0000.0001)          No. stops:          20
(PID.TID 0000.0001)  Seconds in section "WRITE_CHECKPOINT   [THE_MODEL_MAIN]":
(PID.TID 0000.0001)          User time:  2.6344060897827148E-02
(PID.TID 0000.0001)        System time:  2.7280002832412720E-02
(PID.TID 0000.0001)    Wall clock time:  0.1011120080947876
(PID.TID 0000.0001)         No. starts:           1
(PID.TID 0000.0001)          No. stops:           1
(PID.TID 0000.0001) // ======================================================
(PID.TID 0000.0001) // Tile <-> Tile communication statistics
(PID.TID 0000.0001) // ======================================================
(PID.TID 0000.0001) // o Tile number: 000001
(PID.TID 0000.0001) //         No. X exchanges =              0
(PID.TID 0000.0001) //            Max. X spins =              0
(PID.TID 0000.0001) //            Min. X spins =     1000000000
(PID.TID 0000.0001) //          Total. X spins =              0
(PID.TID 0000.0001) //            Avg. X spins =       0.00E+00
(PID.TID 0000.0001) //         No. Y exchanges =              0
(PID.TID 0000.0001) //            Max. Y spins =              0
(PID.TID 0000.0001) //            Min. Y spins =     1000000000
(PID.TID 0000.0001) //          Total. Y spins =              0
(PID.TID 0000.0001) //            Avg. Y spins =       0.00E+00
(PID.TID 0000.0001) // o Thread number: 000001
(PID.TID 0000.0001) //            No. barriers =          15420
(PID.TID 0000.0001) //      Max. barrier spins =              1
(PID.TID 0000.0001) //      Min. barrier spins =              1
(PID.TID 0000.0001) //     Total barrier spins =          15420
(PID.TID 0000.0001) //      Avg. barrier spins =       1.00E+00
